Circuit: * C:\Users\USER\Desktop\ECE445_SeniorDesign\Notebooks\Kanin\Simulation\Buck-converter.asc

WARNING: Node N004 is floating.
WARNING: Node N002 is floating.

Direct Newton iteration for .op point succeeded.
Heightened Def Con from 1e-010 to 1.8e-009
Heightened Def Con from 3.12511e-005 +++++++++++++++++++to 3.12521e-005
Heightened Def Con from 3.33334e-005 ++++++++++++++++++++to 3.33346e-005
Heightened Def Con from 6.66668e-005 ++++++++++++++++++++to 6.66678e-005
Heightened Def Con from 9.37511e-005 +++++++++++++++++++to 9.37521e-005
Heightened Def Con from 0.0001 ++++++++++++++++++++to 0.000100001
Heightened Def Con from 0.000133333 ++++++++++++++++++++to 0.000133334
Heightened Def Con from 0.000156251 +++++++++++++++++++to 0.000156252
Heightened Def Con from 0.000166667 ++++++++++++++++++++to 0.000166668
Heightened Def Con from 0.0002 ++++++++++++++++++++to 0.000200001
Heightened Def Con from 0.000218751 +++++++++++++++++++to 0.000218752
Heightened Def Con from 0.000233333 ++++++++++++++++++++to 0.000233334
Heightened Def Con from 0.000266667 ++++++++++++++++++++to 0.000266668
Heightened Def Con from 0.000281251 +++++++++++++++++++to 0.000281252
Heightened Def Con from 0.000281252 to 0.000281257
Heightened Def Con from 0.0003 ++++++++++++++++++++to 0.000300001
Heightened Def Con from 0.000333333 ++++++++++++++++++++to 0.000333334
Heightened Def Con from 0.000343751 +++++++++++++++++++to 0.000343752
Heightened Def Con from 0.000343752 to 0.000343757
Heightened Def Con from 0.000366667 ++++++++++++++++++++to 0.000366668
Heightened Def Con from 0.0004 ++++++++++++++++++++to 0.000400001
Heightened Def Con from 0.000406251 +++++++++++++++++++to 0.000406252
Heightened Def Con from 0.000433333 ++++++++++++++++++++to 0.000433334
Heightened Def Con from 0.000466667 ++++++++++++++++++++to 0.000466668
Heightened Def Con from 0.000468751 +++++++++++++++++++to 0.000468752
Heightened Def Con from 0.0005 ++++++++++++++++++++to 0.000500001
Heightened Def Con from 0.000531251 +++++++++++++++++++to 0.000531252
Heightened Def Con from 0.000533333 ++++++++++++++++++++to 0.000533334
Heightened Def Con from 0.000566667 ++++++++++++++++++++to 0.000566668
Heightened Def Con from 0.000593751 +++++++++++++++++++to 0.000593752
Heightened Def Con from 0.0006 ++++++++++++++++++++to 0.000600001
Heightened Def Con from 0.000633333 ++++++++++++++++++++to 0.000633334
Heightened Def Con from 0.000656251 +++++++++++++++++++to 0.000656252
Heightened Def Con from 0.000666667 ++++++++++++++++++++to 0.000666668
Heightened Def Con from 0.0007 ++++++++++++++++++++to 0.000700001
Heightened Def Con from 0.000718751 +++++++++++++++++++to 0.000718752
Heightened Def Con from 0.000733333 ++++++++++++++++++++to 0.000733334
Heightened Def Con from 0.000766667 ++++++++++++++++++++to 0.000766668
Heightened Def Con from 0.000781251 +++++++++++++++++++to 0.000781252
Heightened Def Con from 0.0008 ++++++++++++++++++++to 0.000800001
Heightened Def Con from 0.000833333 ++++++++++++++++++++to 0.000833334
Heightened Def Con from 0.000843751 +++++++++++++++++++to 0.000843752
Heightened Def Con from 0.000866667 ++++++++++++++++++++to 0.000866668
Heightened Def Con from 0.0009 ++++++++++++++++++++to 0.000900001
Heightened Def Con from 0.000906251 +++++++++++++++++++to 0.000906252
Heightened Def Con from 0.000933333 ++++++++++++++++++++to 0.000933334
Heightened Def Con from 0.000966667 ++++++++++++++++++++to 0.000966668
Heightened Def Con from 0.000968751 +++++++++++++++++++to 0.000968752
Heightened Def Con from 0.001 ++++++++++++++++++++to 0.001
Heightened Def Con from 0.00103125 +++++++++++++++++++to 0.00103125
Heightened Def Con from 0.00103333 ++++++++++++++++++++to 0.00103333
Heightened Def Con from 0.00106667 ++++++++++++++++++++to 0.00106667
Heightened Def Con from 0.00109375 +++++++++++++++++++to 0.00109375
Heightened Def Con from 0.0011 ++++++++++++++++++++to 0.0011
Heightened Def Con from 0.00113333 ++++++++++++++++++++to 0.00113333
Heightened Def Con from 0.00115625 +++++++++++++++++++to 0.00115625
Heightened Def Con from 0.00116667 ++++++++++++++++++++to 0.00116667
Heightened Def Con from 0.0012 ++++++++++++++++++++to 0.0012
Heightened Def Con from 0.00121875 +++++++++++++++++++to 0.00121875
Heightened Def Con from 0.00123333 ++++++++++++++++++++to 0.00123333
Heightened Def Con from 0.00126667 ++++++++++++++++++++to 0.00126667
Heightened Def Con from 0.00128125 +++++++++++++++++++to 0.00128125
Heightened Def Con from 0.0013 ++++++++++++++++++++to 0.0013
Heightened Def Con from 0.00133333 ++++++++++++++++++++to 0.00133333
Heightened Def Con from 0.00134375 +++++++++++++++++++to 0.00134375
Heightened Def Con from 0.00136667 ++++++++++++++++++++to 0.00136667
Heightened Def Con from 0.0014 ++++++++++++++++++++to 0.0014
Heightened Def Con from 0.00140625 +++++++++++++++++++to 0.00140625
Heightened Def Con from 0.00143333 ++++++++++++++++++++to 0.00143333
Heightened Def Con from 0.00146667 ++++++++++++++++++++to 0.00146667
Heightened Def Con from 0.00146875 +++++++++++++++++++to 0.00146875
Heightened Def Con from 0.0015 ++++++++++++++++++++to 0.0015
Heightened Def Con from 0.00153125 +++++++++++++++++++to 0.00153125
Heightened Def Con from 0.00153333 ++++++++++++++++++++to 0.00153333
Heightened Def Con from 0.00156667 ++++++++++++++++++++to 0.00156667
Heightened Def Con from 0.00159375 +++++++++++++++++++to 0.00159375
Heightened Def Con from 0.0016 ++++++++++++++++++++to 0.0016
Heightened Def Con from 0.00163333 ++++++++++++++++++++to 0.00163333
Heightened Def Con from 0.00165625 +++++++++++++++++++to 0.00165625
Heightened Def Con from 0.00166667 ++++++++++++++++++++to 0.00166667
Heightened Def Con from 0.0017 ++++++++++++++++++++to 0.0017
Heightened Def Con from 0.00171875 +++++++++++++++++++to 0.00171875
Heightened Def Con from 0.00173333 ++++++++++++++++++++to 0.00173333
Heightened Def Con from 0.00176667 ++++++++++++++++++++to 0.00176667
Heightened Def Con from 0.00178125 +++++++++++++++++++to 0.00178125
Heightened Def Con from 0.0018 ++++++++++++++++++++to 0.0018
Heightened Def Con from 0.00183333 ++++++++++++++++++++to 0.00183333
Heightened Def Con from 0.00184375 +++++++++++++++++++to 0.00184375
Heightened Def Con from 0.00186667 ++++++++++++++++++++to 0.00186667
Heightened Def Con from 0.0019 ++++++++++++++++++++to 0.0019
Heightened Def Con from 0.00190625 +++++++++++++++++++to 0.00190625
Heightened Def Con from 0.00193333 ++++++++++++++++++++to 0.00193333
Heightened Def Con from 0.00196667 ++++++++++++++++++++to 0.00196667
Heightened Def Con from 0.00196875 +++++++++++++++++++to 0.00196875
Heightened Def Con from 0.002 ++++++++++++++++++++to 0.002
Heightened Def Con from 0.00203125 +++++++++++++++++++to 0.00203125
Heightened Def Con from 0.00203333 ++++++++++++++++++++to 0.00203333
Heightened Def Con from 0.00206667 ++++++++++++++++++++to 0.00206667
Heightened Def Con from 0.00209375 +++++++++++++++++++to 0.00209375
Heightened Def Con from 0.0021 ++++++++++++++++++++to 0.0021
Heightened Def Con from 0.00213333 ++++++++++++++++++++to 0.00213333
Heightened Def Con from 0.00215625 +++++++++++++++++++to 0.00215625
Heightened Def Con from 0.00216667 ++++++++++++++++++++to 0.00216667
Heightened Def Con from 0.0022 ++++++++++++++++++++to 0.0022
Heightened Def Con from 0.00221875 +++++++++++++++++++to 0.00221875
Heightened Def Con from 0.00223333 ++++++++++++++++++++to 0.00223333
Heightened Def Con from 0.00226667 ++++++++++++++++++++to 0.00226667
Heightened Def Con from 0.00228125 +++++++++++++++++++to 0.00228125
Heightened Def Con from 0.0023 ++++++++++++++++++++to 0.0023
Heightened Def Con from 0.00233333 ++++++++++++++++++++to 0.00233333
Heightened Def Con from 0.00234375 +++++++++++++++++++to 0.00234375
Heightened Def Con from 0.00236667 ++++++++++++++++++++to 0.00236667
Heightened Def Con from 0.0024 ++++++++++++++++++++to 0.0024
Heightened Def Con from 0.00240625 +++++++++++++++++++to 0.00240625
Heightened Def Con from 0.00243333 ++++++++++++++++++++to 0.00243333
Heightened Def Con from 0.00246667 ++++++++++++++++++++to 0.00246667
Heightened Def Con from 0.00246875 +++++++++++++++++++to 0.00246875
Heightened Def Con from 0.0025 ++++++++++++++++++++to 0.0025
Heightened Def Con from 0.00253125 +++++++++++++++++++to 0.00253125
Heightened Def Con from 0.00253333 ++++++++++++++++++++to 0.00253333
Heightened Def Con from 0.00256667 ++++++++++++++++++++to 0.00256667
Heightened Def Con from 0.00259375 +++++++++++++++++++to 0.00259375
Heightened Def Con from 0.0026 ++++++++++++++++++++to 0.0026
Heightened Def Con from 0.00263333 ++++++++++++++++++++to 0.00263333
Heightened Def Con from 0.00265625 +++++++++++++++++++to 0.00265625
Heightened Def Con from 0.00266667 ++++++++++++++++++++to 0.00266667
Heightened Def Con from 0.0027 ++++++++++++++++++++to 0.0027
Heightened Def Con from 0.00271875 +++++++++++++++++++to 0.00271875
Heightened Def Con from 0.00273333 ++++++++++++++++++++to 0.00273333
Heightened Def Con from 0.00276667 ++++++++++++++++++++to 0.00276667
Heightened Def Con from 0.00278125 +++++++++++++++++++to 0.00278125
Heightened Def Con from 0.0028 ++++++++++++++++++++to 0.0028
Heightened Def Con from 0.00283333 ++++++++++++++++++++to 0.00283333
Heightened Def Con from 0.00284375 +++++++++++++++++++to 0.00284375
Heightened Def Con from 0.00286667 ++++++++++++++++++++to 0.00286667
Heightened Def Con from 0.0029 ++++++++++++++++++++to 0.0029
Heightened Def Con from 0.00290625 +++++++++++++++++++to 0.00290625
Heightened Def Con from 0.00293333 ++++++++++++++++++++to 0.00293333
Heightened Def Con from 0.00296667 ++++++++++++++++++++to 0.00296667
Heightened Def Con from 0.00296875 +++++++++++++++++++to 0.00296875
Heightened Def Con from 0.003 ++++++++++++++++++++to 0.003
Heightened Def Con from 0.00303125 +++++++++++++++++++to 0.00303125
Heightened Def Con from 0.00303333 ++++++++++++++++++++to 0.00303333
Heightened Def Con from 0.00306667 ++++++++++++++++++++to 0.00306667
Heightened Def Con from 0.00309375 +++++++++++++++++++to 0.00309375
Heightened Def Con from 0.0031 ++++++++++++++++++++to 0.0031
Heightened Def Con from 0.00313333 ++++++++++++++++++++to 0.00313333
Heightened Def Con from 0.00315625 +++++++++++++++++++to 0.00315625
Heightened Def Con from 0.00316667 ++++++++++++++++++++to 0.00316667
Heightened Def Con from 0.0032 ++++++++++++++++++++to 0.0032
Heightened Def Con from 0.00321875 +++++++++++++++++++to 0.00321875
Heightened Def Con from 0.00323333 ++++++++++++++++++++to 0.00323333
Heightened Def Con from 0.00326667 ++++++++++++++++++++to 0.00326667
Heightened Def Con from 0.00328125 +++++++++++++++++++to 0.00328125
Heightened Def Con from 0.0033 ++++++++++++++++++++to 0.0033
Heightened Def Con from 0.00333333 ++++++++++++++++++++to 0.00333333
Heightened Def Con from 0.00334375 +++++++++++++++++++to 0.00334375
Heightened Def Con from 0.00336667 ++++++++++++++++++++to 0.00336667
Heightened Def Con from 0.0034 ++++++++++++++++++++to 0.0034
Heightened Def Con from 0.00340625 +++++++++++++++++++to 0.00340625
Heightened Def Con from 0.00343333 ++++++++++++++++++++to 0.00343333
Heightened Def Con from 0.00346667 ++++++++++++++++++++to 0.00346667
Heightened Def Con from 0.00346875 +++++++++++++++++++to 0.00346875
Heightened Def Con from 0.0035 ++++++++++++++++++++to 0.0035
Heightened Def Con from 0.00353125 +++++++++++++++++++to 0.00353125
Heightened Def Con from 0.00353333 ++++++++++++++++++++to 0.00353333
Heightened Def Con from 0.00356667 ++++++++++++++++++++to 0.00356667
Heightened Def Con from 0.00359375 +++++++++++++++++++to 0.00359375
Heightened Def Con from 0.0036 ++++++++++++++++++++to 0.0036
Heightened Def Con from 0.00363333 ++++++++++++++++++++to 0.00363333
Heightened Def Con from 0.00365625 +++++++++++++++++++to 0.00365625
Heightened Def Con from 0.00366667 ++++++++++++++++++++to 0.00366667
Heightened Def Con from 0.0037 ++++++++++++++++++++to 0.0037
Heightened Def Con from 0.00371875 +++++++++++++++++++to 0.00371875
Heightened Def Con from 0.00373333 ++++++++++++++++++++to 0.00373333
Heightened Def Con from 0.00376667 ++++++++++++++++++++to 0.00376667
Heightened Def Con from 0.00378125 +++++++++++++++++++to 0.00378125
Heightened Def Con from 0.0038 ++++++++++++++++++++to 0.0038
Heightened Def Con from 0.00383333 ++++++++++++++++++++to 0.00383333
Heightened Def Con from 0.00384375 +++++++++++++++++++to 0.00384375
Heightened Def Con from 0.00386667 ++++++++++++++++++++to 0.00386667
Heightened Def Con from 0.0039 ++++++++++++++++++++to 0.0039
Heightened Def Con from 0.00390625 +++++++++++++++++++to 0.00390625
Heightened Def Con from 0.00393333 ++++++++++++++++++++to 0.00393333
Heightened Def Con from 0.00396667 ++++++++++++++++++++to 0.00396667
Heightened Def Con from 0.00396875 +++++++++++++++++++to 0.00396875
Heightened Def Con from 0.004 ++++++++++++++++++++to 0.004
Heightened Def Con from 0.00403125 +++++++++++++++++++to 0.00403125
Heightened Def Con from 0.00403333 ++++++++++++++++++++to 0.00403333
Heightened Def Con from 0.00406667 ++++++++++++++++++++to 0.00406667
Heightened Def Con from 0.00409375 +++++++++++++++++++to 0.00409375
Heightened Def Con from 0.0041 ++++++++++++++++++++to 0.0041
Heightened Def Con from 0.00413333 ++++++++++++++++++++to 0.00413333
Heightened Def Con from 0.00415625 +++++++++++++++++++to 0.00415625
Heightened Def Con from 0.00416667 ++++++++++++++++++++to 0.00416667
Heightened Def Con from 0.0042 ++++++++++++++++++++to 0.0042
Heightened Def Con from 0.00421875 +++++++++++++++++++to 0.00421875
Heightened Def Con from 0.00423333 ++++++++++++++++++++to 0.00423333
Heightened Def Con from 0.00426667 ++++++++++++++++++++to 0.00426667
Heightened Def Con from 0.00428125 +++++++++++++++++++to 0.00428125
Heightened Def Con from 0.0043 ++++++++++++++++++++to 0.0043
Heightened Def Con from 0.00433333 ++++++++++++++++++++to 0.00433333
Heightened Def Con from 0.00434375 +++++++++++++++++++to 0.00434375
Heightened Def Con from 0.00436667 ++++++++++++++++++++to 0.00436667
Heightened Def Con from 0.0044 ++++++++++++++++++++to 0.0044
Heightened Def Con from 0.00440625 +++++++++++++++++++to 0.00440625
Heightened Def Con from 0.00443333 ++++++++++++++++++++to 0.00443333
Heightened Def Con from 0.00446667 ++++++++++++++++++++to 0.00446667
Heightened Def Con from 0.00446875 +++++++++++++++++++to 0.00446875
Heightened Def Con from 0.0045 ++++++++++++++++++++to 0.0045
Heightened Def Con from 0.00453125 +++++++++++++++++++to 0.00453125
Heightened Def Con from 0.00453333 ++++++++++++++++++++to 0.00453333
Heightened Def Con from 0.00456667 ++++++++++++++++++++to 0.00456667
Heightened Def Con from 0.00459375 +++++++++++++++++++to 0.00459375
Heightened Def Con from 0.0046 ++++++++++++++++++++to 0.0046
Heightened Def Con from 0.00463333 ++++++++++++++++++++to 0.00463333
Heightened Def Con from 0.00465625 +++++++++++++++++++to 0.00465625
Heightened Def Con from 0.00466667 ++++++++++++++++++++to 0.00466667
Heightened Def Con from 0.0047 ++++++++++++++++++++to 0.0047
Heightened Def Con from 0.00471875 +++++++++++++++++++to 0.00471875
Heightened Def Con from 0.00473333 ++++++++++++++++++++to 0.00473333
Heightened Def Con from 0.00476667 ++++++++++++++++++++to 0.00476667
Heightened Def Con from 0.00478125 +++++++++++++++++++to 0.00478125
Heightened Def Con from 0.0048 ++++++++++++++++++++to 0.0048
Heightened Def Con from 0.00483333 ++++++++++++++++++++to 0.00483333
Heightened Def Con from 0.00484375 +++++++++++++++++++to 0.00484375
Heightened Def Con from 0.00486667 ++++++++++++++++++++to 0.00486667
Heightened Def Con from 0.0049 ++++++++++++++++++++to 0.0049
Heightened Def Con from 0.00490625 +++++++++++++++++++to 0.00490625
Heightened Def Con from 0.00493333 ++++++++++++++++++++to 0.00493333
Heightened Def Con from 0.00496667 ++++++++++++++++++++to 0.00496667
Heightened Def Con from 0.00496875 +++++++++++++++++++to 0.00496875
Heightened Def Con from 0.005 ++++++++++++++++++++to 0.005
Heightened Def Con from 0.00503125 +++++++++++++++++++to 0.00503125
Heightened Def Con from 0.00503333 ++++++++++++++++++++to 0.00503333
Heightened Def Con from 0.00506667 ++++++++++++++++++++to 0.00506667
Heightened Def Con from 0.00509375 +++++++++++++++++++to 0.00509375
Heightened Def Con from 0.0051 ++++++++++++++++++++to 0.0051
Heightened Def Con from 0.00513333 ++++++++++++++++++++to 0.00513333
Heightened Def Con from 0.00515625 +++++++++++++++++++to 0.00515625
Heightened Def Con from 0.00516667 ++++++++++++++++++++to 0.00516667
Heightened Def Con from 0.0052 ++++++++++++++++++++to 0.0052
Heightened Def Con from 0.00521875 +++++++++++++++++++to 0.00521875
Heightened Def Con from 0.00523333 ++++++++++++++++++++to 0.00523333
Heightened Def Con from 0.00526667 ++++++++++++++++++++to 0.00526667
Heightened Def Con from 0.00528125 +++++++++++++++++++to 0.00528125
Heightened Def Con from 0.0053 ++++++++++++++++++++to 0.0053
Heightened Def Con from 0.00533333 ++++++++++++++++++++to 0.00533333
Heightened Def Con from 0.00534375 +++++++++++++++++++to 0.00534375
Heightened Def Con from 0.00536667 ++++++++++++++++++++to 0.00536667
Heightened Def Con from 0.0054 ++++++++++++++++++++to 0.0054
Heightened Def Con from 0.00540625 +++++++++++++++++++to 0.00540625
Heightened Def Con from 0.00543333 ++++++++++++++++++++to 0.00543333
Heightened Def Con from 0.00546667 ++++++++++++++++++++to 0.00546667
Heightened Def Con from 0.00546875 +++++++++++++++++++to 0.00546875
Heightened Def Con from 0.0055 ++++++++++++++++++++to 0.0055
Heightened Def Con from 0.00553125 +++++++++++++++++++to 0.00553125
Heightened Def Con from 0.00553333 ++++++++++++++++++++to 0.00553333
Heightened Def Con from 0.00556667 ++++++++++++++++++++to 0.00556667
Heightened Def Con from 0.00559375 +++++++++++++++++++to 0.00559375
Heightened Def Con from 0.0056 ++++++++++++++++++++to 0.0056
Heightened Def Con from 0.00563333 ++++++++++++++++++++to 0.00563333
Heightened Def Con from 0.00565625 +++++++++++++++++++to 0.00565625
Heightened Def Con from 0.00566667 ++++++++++++++++++++to 0.00566667
Heightened Def Con from 0.0057 ++++++++++++++++++++to 0.0057
Heightened Def Con from 0.00571875 +++++++++++++++++++to 0.00571875
Heightened Def Con from 0.00573333 ++++++++++++++++++++to 0.00573333
Heightened Def Con from 0.00576667 ++++++++++++++++++++to 0.00576667
Heightened Def Con from 0.00578125 +++++++++++++++++++to 0.00578125
Heightened Def Con from 0.0058 ++++++++++++++++++++to 0.0058
Heightened Def Con from 0.00583333 ++++++++++++++++++++to 0.00583333
Heightened Def Con from 0.00584375 +++++++++++++++++++to 0.00584375
Heightened Def Con from 0.00586667 ++++++++++++++++++++to 0.00586667
Heightened Def Con from 0.0059 ++++++++++++++++++++to 0.0059
Heightened Def Con from 0.00590625 +++++++++++++++++++to 0.00590625
Heightened Def Con from 0.00593333 ++++++++++++++++++++to 0.00593333
Heightened Def Con from 0.00596667 ++++++++++++++++++++to 0.00596667
Heightened Def Con from 0.00596875 +++++++++++++++++++to 0.00596875
Heightened Def Con from 0.006 ++++++++++++++++++++to 0.006
Heightened Def Con from 0.00603125 +++++++++++++++++++to 0.00603125
Heightened Def Con from 0.00603333 ++++++++++++++++++++to 0.00603333
Heightened Def Con from 0.00606667 ++++++++++++++++++++to 0.00606667
Heightened Def Con from 0.00609375 +++++++++++++++++++to 0.00609375
Heightened Def Con from 0.0061 ++++++++++++++++++++to 0.0061
Heightened Def Con from 0.00613333 ++++++++++++++++++++to 0.00613333
Heightened Def Con from 0.00615625 +++++++++++++++++++to 0.00615625
Heightened Def Con from 0.00616667 ++++++++++++++++++++to 0.00616667
Heightened Def Con from 0.0062 ++++++++++++++++++++to 0.0062
Heightened Def Con from 0.00621875 +++++++++++++++++++to 0.00621875
Heightened Def Con from 0.00623333 ++++++++++++++++++++to 0.00623333
Heightened Def Con from 0.00626667 ++++++++++++++++++++to 0.00626667
Heightened Def Con from 0.00628125 +++++++++++++++++++to 0.00628125
Heightened Def Con from 0.0063 ++++++++++++++++++++to 0.0063
Heightened Def Con from 0.00633333 ++++++++++++++++++++to 0.00633333
Heightened Def Con from 0.00634375 +++++++++++++++++++to 0.00634375
Heightened Def Con from 0.00636667 ++++++++++++++++++++to 0.00636667
Heightened Def Con from 0.0064 ++++++++++++++++++++to 0.0064
Heightened Def Con from 0.00640625 +++++++++++++++++++to 0.00640625
Heightened Def Con from 0.00643333 ++++++++++++++++++++to 0.00643333
Heightened Def Con from 0.00646667 ++++++++++++++++++++to 0.00646667
Heightened Def Con from 0.00646875 +++++++++++++++++++to 0.00646875
Heightened Def Con from 0.0065 ++++++++++++++++++++to 0.0065
Heightened Def Con from 0.00653125 +++++++++++++++++++to 0.00653125
Heightened Def Con from 0.00653333 ++++++++++++++++++++to 0.00653333
Heightened Def Con from 0.00656667 ++++++++++++++++++++to 0.00656667
Heightened Def Con from 0.00659375 +++++++++++++++++++to 0.00659375
Heightened Def Con from 0.0066 ++++++++++++++++++++to 0.0066
Heightened Def Con from 0.00663333 ++++++++++++++++++++to 0.00663333
Heightened Def Con from 0.00665625 +++++++++++++++++++to 0.00665625
Heightened Def Con from 0.00666667 ++++++++++++++++++++to 0.00666667
Heightened Def Con from 0.0067 ++++++++++++++++++++to 0.0067
Heightened Def Con from 0.00671875 +++++++++++++++++++to 0.00671875
Heightened Def Con from 0.00673333 ++++++++++++++++++++to 0.00673333
Heightened Def Con from 0.00676667 ++++++++++++++++++++to 0.00676667
Heightened Def Con from 0.00678125 +++++++++++++++++++to 0.00678125
Heightened Def Con from 0.0068 ++++++++++++++++++++to 0.0068
Heightened Def Con from 0.00683333 ++++++++++++++++++++to 0.00683333
Heightened Def Con from 0.00684375 +++++++++++++++++++to 0.00684375
Heightened Def Con from 0.00686667 ++++++++++++++++++++to 0.00686667
Heightened Def Con from 0.0069 ++++++++++++++++++++to 0.0069
Heightened Def Con from 0.00690625 +++++++++++++++++++to 0.00690625
Heightened Def Con from 0.00693333 ++++++++++++++++++++to 0.00693333
Heightened Def Con from 0.00696667 ++++++++++++++++++++to 0.00696667
Heightened Def Con from 0.00696875 +++++++++++++++++++to 0.00696875
Heightened Def Con from 0.007 ++++++++++++++++++++to 0.007
Heightened Def Con from 0.00703125 +++++++++++++++++++to 0.00703125
Heightened Def Con from 0.00703333 ++++++++++++++++++++to 0.00703333
Heightened Def Con from 0.00706667 ++++++++++++++++++++to 0.00706667
Heightened Def Con from 0.00709375 +++++++++++++++++++to 0.00709375
Heightened Def Con from 0.0071 ++++++++++++++++++++to 0.0071
Heightened Def Con from 0.00713333 ++++++++++++++++++++to 0.00713333
Heightened Def Con from 0.00715625 +++++++++++++++++++to 0.00715625
Heightened Def Con from 0.00716667 ++++++++++++++++++++to 0.00716667
Heightened Def Con from 0.0072 ++++++++++++++++++++to 0.0072
Heightened Def Con from 0.00721875 +++++++++++++++++++to 0.00721875
Heightened Def Con from 0.00723333 ++++++++++++++++++++to 0.00723333
Heightened Def Con from 0.00726667 ++++++++++++++++++++to 0.00726667
Heightened Def Con from 0.00728125 +++++++++++++++++++to 0.00728125
Heightened Def Con from 0.0073 ++++++++++++++++++++to 0.0073
Heightened Def Con from 0.00733333 ++++++++++++++++++++to 0.00733333
Heightened Def Con from 0.00734375 +++++++++++++++++++to 0.00734375
Heightened Def Con from 0.00736667 ++++++++++++++++++++to 0.00736667
Heightened Def Con from 0.0074 ++++++++++++++++++++to 0.0074
Heightened Def Con from 0.00740625 +++++++++++++++++++to 0.00740625
Heightened Def Con from 0.00743333 ++++++++++++++++++++to 0.00743333
Heightened Def Con from 0.00746667 ++++++++++++++++++++to 0.00746667
Heightened Def Con from 0.00746875 +++++++++++++++++++to 0.00746875
Heightened Def Con from 0.0075 ++++++++++++++++++++to 0.0075
Heightened Def Con from 0.00753125 +++++++++++++++++++to 0.00753125
Heightened Def Con from 0.00753333 ++++++++++++++++++++to 0.00753333
Heightened Def Con from 0.00756667 ++++++++++++++++++++to 0.00756667
Heightened Def Con from 0.00759375 +++++++++++++++++++to 0.00759375
Heightened Def Con from 0.0076 ++++++++++++++++++++to 0.0076
Heightened Def Con from 0.00763333 ++++++++++++++++++++to 0.00763333
Heightened Def Con from 0.00765625 +++++++++++++++++++to 0.00765625
Heightened Def Con from 0.00766667 ++++++++++++++++++++to 0.00766667
Heightened Def Con from 0.0077 ++++++++++++++++++++to 0.0077
Heightened Def Con from 0.00771875 +++++++++++++++++++to 0.00771875
Heightened Def Con from 0.00773333 ++++++++++++++++++++to 0.00773333
Heightened Def Con from 0.00776667 ++++++++++++++++++++to 0.00776667
Heightened Def Con from 0.00778125 +++++++++++++++++++to 0.00778125
Heightened Def Con from 0.0078 ++++++++++++++++++++to 0.0078
Heightened Def Con from 0.00783333 ++++++++++++++++++++to 0.00783333
Heightened Def Con from 0.00784375 +++++++++++++++++++to 0.00784375
Heightened Def Con from 0.00786667 ++++++++++++++++++++to 0.00786667
Heightened Def Con from 0.0079 ++++++++++++++++++++to 0.0079
Heightened Def Con from 0.00790625 +++++++++++++++++++to 0.00790625
Heightened Def Con from 0.00793333 ++++++++++++++++++++to 0.00793333
Heightened Def Con from 0.00796667 ++++++++++++++++++++to 0.00796667
Heightened Def Con from 0.00796875 +++++++++++++++++++to 0.00796875
Heightened Def Con from 0.008 ++++++++++++++++++++to 0.008
Heightened Def Con from 0.00803125 +++++++++++++++++++to 0.00803125
Heightened Def Con from 0.00803333 ++++++++++++++++++++to 0.00803333
Heightened Def Con from 0.00806667 ++++++++++++++++++++to 0.00806667
Heightened Def Con from 0.00809375 +++++++++++++++++++to 0.00809375
Heightened Def Con from 0.0081 ++++++++++++++++++++to 0.0081
Heightened Def Con from 0.00813333 ++++++++++++++++++++to 0.00813333
Heightened Def Con from 0.00815625 +++++++++++++++++++to 0.00815625
Heightened Def Con from 0.00816667 ++++++++++++++++++++to 0.00816667
Heightened Def Con from 0.0082 ++++++++++++++++++++to 0.0082
Heightened Def Con from 0.00821875 +++++++++++++++++++to 0.00821875
Heightened Def Con from 0.00823333 ++++++++++++++++++++to 0.00823333
Heightened Def Con from 0.00826667 ++++++++++++++++++++to 0.00826667
Heightened Def Con from 0.00828125 +++++++++++++++++++to 0.00828125
Heightened Def Con from 0.0083 ++++++++++++++++++++to 0.0083
Heightened Def Con from 0.00833333 ++++++++++++++++++++to 0.00833333
Heightened Def Con from 0.00834375 +++++++++++++++++++to 0.00834375
Heightened Def Con from 0.00836667 ++++++++++++++++++++to 0.00836667
Heightened Def Con from 0.0084 ++++++++++++++++++++to 0.0084
Heightened Def Con from 0.00840625 +++++++++++++++++++to 0.00840625
Heightened Def Con from 0.00843333 ++++++++++++++++++++to 0.00843333
Heightened Def Con from 0.00846667 ++++++++++++++++++++to 0.00846667
Heightened Def Con from 0.00846875 +++++++++++++++++++to 0.00846875
Heightened Def Con from 0.0085 ++++++++++++++++++++to 0.0085
Heightened Def Con from 0.00853125 +++++++++++++++++++to 0.00853125
Heightened Def Con from 0.00853333 ++++++++++++++++++++to 0.00853333
Heightened Def Con from 0.00856667 ++++++++++++++++++++to 0.00856667
Heightened Def Con from 0.00859375 +++++++++++++++++++to 0.00859375
Heightened Def Con from 0.0086 ++++++++++++++++++++to 0.0086
Heightened Def Con from 0.00863333 ++++++++++++++++++++to 0.00863333
Heightened Def Con from 0.00865625 +++++++++++++++++++to 0.00865625
Heightened Def Con from 0.00866667 ++++++++++++++++++++to 0.00866667
Heightened Def Con from 0.0087 ++++++++++++++++++++to 0.0087
Heightened Def Con from 0.00871875 +++++++++++++++++++to 0.00871875
Heightened Def Con from 0.00873333 ++++++++++++++++++++to 0.00873333
Heightened Def Con from 0.00876667 ++++++++++++++++++++to 0.00876667
Heightened Def Con from 0.00878125 +++++++++++++++++++to 0.00878125
Heightened Def Con from 0.0088 ++++++++++++++++++++to 0.0088
Heightened Def Con from 0.00883333 ++++++++++++++++++++to 0.00883333
Heightened Def Con from 0.00884375 +++++++++++++++++++to 0.00884375
Heightened Def Con from 0.00886667 ++++++++++++++++++++to 0.00886667
Heightened Def Con from 0.0089 ++++++++++++++++++++to 0.0089
Heightened Def Con from 0.00890625 +++++++++++++++++++to 0.00890625
Heightened Def Con from 0.00893333 ++++++++++++++++++++to 0.00893333
Heightened Def Con from 0.00896667 ++++++++++++++++++++to 0.00896667
Heightened Def Con from 0.00896875 +++++++++++++++++++to 0.00896875
Heightened Def Con from 0.009 ++++++++++++++++++++to 0.009
Heightened Def Con from 0.00903125 +++++++++++++++++++to 0.00903125
Heightened Def Con from 0.00903333 ++++++++++++++++++++to 0.00903333
Heightened Def Con from 0.00906667 ++++++++++++++++++++to 0.00906667
Heightened Def Con from 0.00909375 +++++++++++++++++++to 0.00909375
Heightened Def Con from 0.0091 ++++++++++++++++++++to 0.0091
Heightened Def Con from 0.00913333 ++++++++++++++++++++to 0.00913333
Heightened Def Con from 0.00915625 +++++++++++++++++++to 0.00915625
Heightened Def Con from 0.00916667 ++++++++++++++++++++to 0.00916667
Heightened Def Con from 0.0092 ++++++++++++++++++++to 0.0092
Heightened Def Con from 0.00921875 +++++++++++++++++++to 0.00921875
Heightened Def Con from 0.00923333 ++++++++++++++++++++to 0.00923333
Heightened Def Con from 0.00926667 ++++++++++++++++++++to 0.00926667
Heightened Def Con from 0.00928125 +++++++++++++++++++to 0.00928125
Heightened Def Con from 0.0093 ++++++++++++++++++++to 0.0093
Heightened Def Con from 0.00933333 ++++++++++++++++++++to 0.00933333
Heightened Def Con from 0.00934375 +++++++++++++++++++to 0.00934375
Heightened Def Con from 0.00936667 ++++++++++++++++++++to 0.00936667
Heightened Def Con from 0.0094 ++++++++++++++++++++to 0.0094
Heightened Def Con from 0.00940625 +++++++++++++++++++to 0.00940625
Heightened Def Con from 0.00943333 ++++++++++++++++++++to 0.00943333
Heightened Def Con from 0.00946667 ++++++++++++++++++++to 0.00946667
Heightened Def Con from 0.00946875 +++++++++++++++++++to 0.00946875
Heightened Def Con from 0.0095 ++++++++++++++++++++to 0.0095
Heightened Def Con from 0.00953125 +++++++++++++++++++to 0.00953125
Heightened Def Con from 0.00953333 ++++++++++++++++++++to 0.00953333
Heightened Def Con from 0.00956667 ++++++++++++++++++++to 0.00956667
Heightened Def Con from 0.00959375 +++++++++++++++++++to 0.00959375
Heightened Def Con from 0.0096 ++++++++++++++++++++to 0.0096
Heightened Def Con from 0.00963333 ++++++++++++++++++++to 0.00963333
Heightened Def Con from 0.00965625 +++++++++++++++++++to 0.00965625
Heightened Def Con from 0.00966667 ++++++++++++++++++++to 0.00966667
Heightened Def Con from 0.0097 ++++++++++++++++++++to 0.0097
Heightened Def Con from 0.00971875 +++++++++++++++++++to 0.00971875
Heightened Def Con from 0.00973333 ++++++++++++++++++++to 0.00973333
Heightened Def Con from 0.00976667 ++++++++++++++++++++to 0.00976667
Heightened Def Con from 0.00978125 +++++++++++++++++++to 0.00978125
Heightened Def Con from 0.0098 ++++++++++++++++++++to 0.0098
Heightened Def Con from 0.00983333 ++++++++++++++++++++to 0.00983333
Heightened Def Con from 0.00984375 +++++++++++++++++++to 0.00984375
Heightened Def Con from 0.00986667 ++++++++++++++++++++to 0.00986667
Heightened Def Con from 0.0099 ++++++++++++++++++++to 0.0099
Heightened Def Con from 0.00990625 +++++++++++++++++++to 0.00990625
Heightened Def Con from 0.00993333 ++++++++++++++++++++to 0.00993333
Heightened Def Con from 0.00996667 ++++++++++++++++++++to 0.00996667
Heightened Def Con from 0.00996875 +++++++++++++++++++to 0.00996875
Heightened Def Con from 0.01 ++++++++++++++++++++to 0.01
Heightened Def Con from 0.0100313 +++++++++++++++++++to 0.0100313
Heightened Def Con from 0.0100333 ++++++++++++++++++++to 0.0100333
Heightened Def Con from 0.0100667 ++++++++++++++++++++to 0.0100667
Heightened Def Con from 0.0100938 +++++++++++++++++++to 0.0100938
Heightened Def Con from 0.0101 ++++++++++++++++++++to 0.0101
Heightened Def Con from 0.0101333 ++++++++++++++++++++to 0.0101333
Heightened Def Con from 0.0101563 +++++++++++++++++++to 0.0101563
Heightened Def Con from 0.0101667 ++++++++++++++++++++to 0.0101667
Heightened Def Con from 0.0102 ++++++++++++++++++++to 0.0102
Heightened Def Con from 0.0102188 +++++++++++++++++++to 0.0102188
Heightened Def Con from 0.0102333 ++++++++++++++++++++to 0.0102333
Heightened Def Con from 0.0102667 ++++++++++++++++++++to 0.0102667
Heightened Def Con from 0.0102813 +++++++++++++++++++to 0.0102813
Heightened Def Con from 0.0103 ++++++++++++++++++++to 0.0103
Heightened Def Con from 0.0103333 ++++++++++++++++++++to 0.0103333
Heightened Def Con from 0.0103438 +++++++++++++++++++to 0.0103438
Heightened Def Con from 0.0103667 ++++++++++++++++++++to 0.0103667
Heightened Def Con from 0.0104 ++++++++++++++++++++to 0.0104
Heightened Def Con from 0.0104063 +++++++++++++++++++to 0.0104063
Heightened Def Con from 0.0104333 ++++++++++++++++++++to 0.0104333
Heightened Def Con from 0.0104667 ++++++++++++++++++++to 0.0104667
Heightened Def Con from 0.0104688 +++++++++++++++++++to 0.0104688
Heightened Def Con from 0.0105 ++++++++++++++++++++to 0.0105
Heightened Def Con from 0.0105313 +++++++++++++++++++to 0.0105313
Heightened Def Con from 0.0105333 ++++++++++++++++++++to 0.0105333
Heightened Def Con from 0.0105667 ++++++++++++++++++++to 0.0105667
Heightened Def Con from 0.0105938 +++++++++++++++++++to 0.0105938
Heightened Def Con from 0.0106 ++++++++++++++++++++to 0.0106
Heightened Def Con from 0.0106333 ++++++++++++++++++++to 0.0106333
Heightened Def Con from 0.0106563 +++++++++++++++++++to 0.0106563
Heightened Def Con from 0.0106667 ++++++++++++++++++++to 0.0106667
Heightened Def Con from 0.0107 ++++++++++++++++++++to 0.0107
Heightened Def Con from 0.0107188 +++++++++++++++++++to 0.0107188
Heightened Def Con from 0.0107333 ++++++++++++++++++++to 0.0107333
Heightened Def Con from 0.0107667 ++++++++++++++++++++to 0.0107667
Heightened Def Con from 0.0107813 +++++++++++++++++++to 0.0107813
Heightened Def Con from 0.0108 ++++++++++++++++++++to 0.0108
Heightened Def Con from 0.0108333 ++++++++++++++++++++to 0.0108333
Heightened Def Con from 0.0108438 +++++++++++++++++++to 0.0108438
Heightened Def Con from 0.0108667 ++++++++++++++++++++to 0.0108667
Heightened Def Con from 0.0109 ++++++++++++++++++++to 0.0109
Heightened Def Con from 0.0109063 +++++++++++++++++++to 0.0109063
Heightened Def Con from 0.0109333 ++++++++++++++++++++to 0.0109333
Heightened Def Con from 0.0109667 ++++++++++++++++++++to 0.0109667
Heightened Def Con from 0.0109688 +++++++++++++++++++to 0.0109688
Heightened Def Con from 0.011 ++++++++++++++++++++to 0.011
Heightened Def Con from 0.0110313 +++++++++++++++++++to 0.0110313
Heightened Def Con from 0.0110333 ++++++++++++++++++++to 0.0110333
Heightened Def Con from 0.0110667 ++++++++++++++++++++to 0.0110667
Heightened Def Con from 0.0110938 +++++++++++++++++++to 0.0110938
Heightened Def Con from 0.0111 ++++++++++++++++++++to 0.0111
Heightened Def Con from 0.0111333 ++++++++++++++++++++to 0.0111333
Heightened Def Con from 0.0111563 +++++++++++++++++++to 0.0111563
Heightened Def Con from 0.0111667 ++++++++++++++++++++to 0.0111667
Heightened Def Con from 0.0112 ++++++++++++++++++++to 0.0112
Heightened Def Con from 0.0112188 +++++++++++++++++++to 0.0112188
Heightened Def Con from 0.0112333 ++++++++++++++++++++to 0.0112333
Heightened Def Con from 0.0112667 ++++++++++++++++++++to 0.0112667
Heightened Def Con from 0.0112813 +++++++++++++++++++to 0.0112813
Heightened Def Con from 0.0113 ++++++++++++++++++++to 0.0113
Heightened Def Con from 0.0113333 ++++++++++++++++++++to 0.0113333
Heightened Def Con from 0.0113438 +++++++++++++++++++to 0.0113438
Heightened Def Con from 0.0113667 ++++++++++++++++++++to 0.0113667
Heightened Def Con from 0.0114 ++++++++++++++++++++to 0.0114
Heightened Def Con from 0.0114063 +++++++++++++++++++to 0.0114063
Heightened Def Con from 0.0114333 ++++++++++++++++++++to 0.0114333
Heightened Def Con from 0.0114667 ++++++++++++++++++++to 0.0114667
Heightened Def Con from 0.0114688 +++++++++++++++++++to 0.0114688
Heightened Def Con from 0.0115 ++++++++++++++++++++to 0.0115
Heightened Def Con from 0.0115313 +++++++++++++++++++to 0.0115313
Heightened Def Con from 0.0115333 ++++++++++++++++++++to 0.0115333
Heightened Def Con from 0.0115667 ++++++++++++++++++++to 0.0115667
Heightened Def Con from 0.0115938 +++++++++++++++++++to 0.0115938
Heightened Def Con from 0.0116 ++++++++++++++++++++to 0.0116
Heightened Def Con from 0.0116333 ++++++++++++++++++++to 0.0116333
Heightened Def Con from 0.0116563 +++++++++++++++++++to 0.0116563
Heightened Def Con from 0.0116667 ++++++++++++++++++++to 0.0116667
Heightened Def Con from 0.0117 ++++++++++++++++++++to 0.0117
Heightened Def Con from 0.0117188 +++++++++++++++++++to 0.0117188
Heightened Def Con from 0.0117333 ++++++++++++++++++++to 0.0117333
Heightened Def Con from 0.0117667 ++++++++++++++++++++to 0.0117667
Heightened Def Con from 0.0117813 +++++++++++++++++++to 0.0117813
Heightened Def Con from 0.0118 ++++++++++++++++++++to 0.0118
Heightened Def Con from 0.0118333 ++++++++++++++++++++to 0.0118333
Heightened Def Con from 0.0118438 +++++++++++++++++++to 0.0118438
Heightened Def Con from 0.0118667 ++++++++++++++++++++to 0.0118667
Heightened Def Con from 0.0119 ++++++++++++++++++++to 0.0119
Heightened Def Con from 0.0119063 +++++++++++++++++++to 0.0119063
Heightened Def Con from 0.0119333 ++++++++++++++++++++to 0.0119333
Heightened Def Con from 0.0119667 ++++++++++++++++++++to 0.0119667
Heightened Def Con from 0.0119688 +++++++++++++++++++to 0.0119688
Heightened Def Con from 0.012 ++++++++++++++++++++to 0.012
Heightened Def Con from 0.0120313 +++++++++++++++++++to 0.0120313
Heightened Def Con from 0.0120333 ++++++++++++++++++++to 0.0120333
Heightened Def Con from 0.0120667 ++++++++++++++++++++to 0.0120667
Heightened Def Con from 0.0120938 +++++++++++++++++++to 0.0120938
Heightened Def Con from 0.0121 ++++++++++++++++++++to 0.0121
Heightened Def Con from 0.0121333 ++++++++++++++++++++to 0.0121333
Heightened Def Con from 0.0121563 +++++++++++++++++++to 0.0121563
Heightened Def Con from 0.0121667 ++++++++++++++++++++to 0.0121667
Heightened Def Con from 0.0122 ++++++++++++++++++++to 0.0122
Heightened Def Con from 0.0122188 +++++++++++++++++++to 0.0122188
Heightened Def Con from 0.0122333 ++++++++++++++++++++to 0.0122333
Heightened Def Con from 0.0122667 ++++++++++++++++++++to 0.0122667
Heightened Def Con from 0.0122813 +++++++++++++++++++to 0.0122813
Heightened Def Con from 0.0123 ++++++++++++++++++++to 0.0123
Heightened Def Con from 0.0123333 ++++++++++++++++++++to 0.0123333
Heightened Def Con from 0.0123438 +++++++++++++++++++to 0.0123438
Heightened Def Con from 0.0123667 ++++++++++++++++++++to 0.0123667
Heightened Def Con from 0.0124 ++++++++++++++++++++to 0.0124
Heightened Def Con from 0.0124063 +++++++++++++++++++to 0.0124063
Heightened Def Con from 0.0124333 ++++++++++++++++++++to 0.0124333
Heightened Def Con from 0.0124667 ++++++++++++++++++++to 0.0124667
Heightened Def Con from 0.0124688 +++++++++++++++++++to 0.0124688
Heightened Def Con from 0.0125 ++++++++++++++++++++to 0.0125
Heightened Def Con from 0.0125313 +++++++++++++++++++to 0.0125313
Heightened Def Con from 0.0125333 ++++++++++++++++++++to 0.0125333
Heightened Def Con from 0.0125667 ++++++++++++++++++++to 0.0125667
Heightened Def Con from 0.0125938 +++++++++++++++++++to 0.0125938
Heightened Def Con from 0.0126 ++++++++++++++++++++to 0.0126
Heightened Def Con from 0.0126333 ++++++++++++++++++++to 0.0126333
Heightened Def Con from 0.0126563 +++++++++++++++++++to 0.0126563
Heightened Def Con from 0.0126667 ++++++++++++++++++++to 0.0126667
Heightened Def Con from 0.0127 ++++++++++++++++++++to 0.0127
Heightened Def Con from 0.0127188 +++++++++++++++++++to 0.0127188
Heightened Def Con from 0.0127333 ++++++++++++++++++++to 0.0127333
Heightened Def Con from 0.0127667 ++++++++++++++++++++to 0.0127667
Heightened Def Con from 0.0127813 +++++++++++++++++++to 0.0127813
Heightened Def Con from 0.0128 ++++++++++++++++++++to 0.0128
Heightened Def Con from 0.0128333 ++++++++++++++++++++to 0.0128333
Heightened Def Con from 0.0128438 +++++++++++++++++++to 0.0128438
Heightened Def Con from 0.0128667 ++++++++++++++++++++to 0.0128667
Heightened Def Con from 0.0129 ++++++++++++++++++++to 0.0129
Heightened Def Con from 0.0129063 +++++++++++++++++++to 0.0129063
Heightened Def Con from 0.0129333 ++++++++++++++++++++to 0.0129333
Heightened Def Con from 0.0129667 ++++++++++++++++++++to 0.0129667
Heightened Def Con from 0.0129688 +++++++++++++++++++to 0.0129688
Heightened Def Con from 0.013 ++++++++++++++++++++to 0.013
Heightened Def Con from 0.0130313 +++++++++++++++++++to 0.0130313
Heightened Def Con from 0.0130333 ++++++++++++++++++++to 0.0130333
Heightened Def Con from 0.0130667 ++++++++++++++++++++to 0.0130667
Heightened Def Con from 0.0130938 +++++++++++++++++++to 0.0130938
Heightened Def Con from 0.0131 ++++++++++++++++++++to 0.0131
Heightened Def Con from 0.0131333 ++++++++++++++++++++to 0.0131333
Heightened Def Con from 0.0131563 +++++++++++++++++++to 0.0131563
Heightened Def Con from 0.0131667 ++++++++++++++++++++to 0.0131667
Heightened Def Con from 0.0132 ++++++++++++++++++++to 0.0132
Heightened Def Con from 0.0132188 +++++++++++++++++++to 0.0132188
Heightened Def Con from 0.0132333 ++++++++++++++++++++to 0.0132333
Heightened Def Con from 0.0132667 ++++++++++++++++++++to 0.0132667
Heightened Def Con from 0.0132813 +++++++++++++++++++to 0.0132813
Heightened Def Con from 0.0133 ++++++++++++++++++++to 0.0133
Heightened Def Con from 0.0133333 ++++++++++++++++++++to 0.0133333
Heightened Def Con from 0.0133438 +++++++++++++++++++to 0.0133438
Heightened Def Con from 0.0133667 ++++++++++++++++++++to 0.0133667
Heightened Def Con from 0.0134 ++++++++++++++++++++to 0.0134
Heightened Def Con from 0.0134063 +++++++++++++++++++to 0.0134063
Heightened Def Con from 0.0134333 ++++++++++++++++++++to 0.0134333
Heightened Def Con from 0.0134667 ++++++++++++++++++++to 0.0134667
Heightened Def Con from 0.0134688 +++++++++++++++++++to 0.0134688
Heightened Def Con from 0.0135 ++++++++++++++++++++to 0.0135
Heightened Def Con from 0.0135313 +++++++++++++++++++to 0.0135313
Heightened Def Con from 0.0135333 ++++++++++++++++++++to 0.0135333
Heightened Def Con from 0.0135667 ++++++++++++++++++++to 0.0135667
Heightened Def Con from 0.0135938 +++++++++++++++++++to 0.0135938
Heightened Def Con from 0.0136 ++++++++++++++++++++to 0.0136
Heightened Def Con from 0.0136333 ++++++++++++++++++++to 0.0136333
Heightened Def Con from 0.0136563 +++++++++++++++++++to 0.0136563
Heightened Def Con from 0.0136667 ++++++++++++++++++++to 0.0136667
Heightened Def Con from 0.0137 ++++++++++++++++++++to 0.0137
Heightened Def Con from 0.0137188 +++++++++++++++++++to 0.0137188
Heightened Def Con from 0.0137333 ++++++++++++++++++++to 0.0137333
Heightened Def Con from 0.0137667 ++++++++++++++++++++to 0.0137667
Heightened Def Con from 0.0137813 +++++++++++++++++++to 0.0137813
Heightened Def Con from 0.0138 ++++++++++++++++++++to 0.0138
Heightened Def Con from 0.0138333 ++++++++++++++++++++to 0.0138333
Heightened Def Con from 0.0138438 +++++++++++++++++++to 0.0138438
Heightened Def Con from 0.0138667 ++++++++++++++++++++to 0.0138667
Heightened Def Con from 0.0139 ++++++++++++++++++++to 0.0139
Heightened Def Con from 0.0139063 +++++++++++++++++++to 0.0139063
Heightened Def Con from 0.0139333 ++++++++++++++++++++to 0.0139333
Heightened Def Con from 0.0139667 ++++++++++++++++++++to 0.0139667
Heightened Def Con from 0.0139688 +++++++++++++++++++to 0.0139688
Heightened Def Con from 0.014 ++++++++++++++++++++to 0.014
Heightened Def Con from 0.0140313 +++++++++++++++++++to 0.0140313
Heightened Def Con from 0.0140333 ++++++++++++++++++++to 0.0140333
Heightened Def Con from 0.0140667 ++++++++++++++++++++to 0.0140667
Heightened Def Con from 0.0140938 +++++++++++++++++++to 0.0140938
Heightened Def Con from 0.0141 ++++++++++++++++++++to 0.0141
Heightened Def Con from 0.0141333 ++++++++++++++++++++to 0.0141333
Heightened Def Con from 0.0141563 +++++++++++++++++++to 0.0141563
Heightened Def Con from 0.0141667 ++++++++++++++++++++to 0.0141667
Heightened Def Con from 0.0142 ++++++++++++++++++++to 0.0142
Heightened Def Con from 0.0142188 +++++++++++++++++++to 0.0142188
Heightened Def Con from 0.0142333 ++++++++++++++++++++to 0.0142333
Heightened Def Con from 0.0142667 ++++++++++++++++++++to 0.0142667
Heightened Def Con from 0.0142813 +++++++++++++++++++to 0.0142813
Heightened Def Con from 0.0143 ++++++++++++++++++++to 0.0143
Heightened Def Con from 0.0143333 ++++++++++++++++++++to 0.0143333
Heightened Def Con from 0.0143438 +++++++++++++++++++to 0.0143438
Heightened Def Con from 0.0143667 ++++++++++++++++++++to 0.0143667
Heightened Def Con from 0.0144 ++++++++++++++++++++to 0.0144
Heightened Def Con from 0.0144063 +++++++++++++++++++to 0.0144063
Heightened Def Con from 0.0144333 ++++++++++++++++++++to 0.0144333
Heightened Def Con from 0.0144667 ++++++++++++++++++++to 0.0144667
Heightened Def Con from 0.0144688 +++++++++++++++++++to 0.0144688
Heightened Def Con from 0.0145 ++++++++++++++++++++to 0.0145
Heightened Def Con from 0.0145313 +++++++++++++++++++to 0.0145313
Heightened Def Con from 0.0145333 ++++++++++++++++++++to 0.0145333
Heightened Def Con from 0.0145667 ++++++++++++++++++++to 0.0145667
Heightened Def Con from 0.0145938 +++++++++++++++++++to 0.0145938
Heightened Def Con from 0.0146 ++++++++++++++++++++to 0.0146
Heightened Def Con from 0.0146333 ++++++++++++++++++++to 0.0146333
Heightened Def Con from 0.0146563 +++++++++++++++++++to 0.0146563
Heightened Def Con from 0.0146667 ++++++++++++++++++++to 0.0146667
Heightened Def Con from 0.0147 ++++++++++++++++++++to 0.0147
Heightened Def Con from 0.0147188 +++++++++++++++++++to 0.0147188
Heightened Def Con from 0.0147333 ++++++++++++++++++++to 0.0147333
Heightened Def Con from 0.0147667 ++++++++++++++++++++to 0.0147667
Heightened Def Con from 0.0147813 +++++++++++++++++++to 0.0147813
Heightened Def Con from 0.0148 ++++++++++++++++++++to 0.0148
Heightened Def Con from 0.0148333 ++++++++++++++++++++to 0.0148333
Heightened Def Con from 0.0148438 +++++++++++++++++++to 0.0148438
Heightened Def Con from 0.0148667 ++++++++++++++++++++to 0.0148667
Heightened Def Con from 0.0149 ++++++++++++++++++++to 0.0149
Heightened Def Con from 0.0149063 +++++++++++++++++++to 0.0149063
Heightened Def Con from 0.0149333 ++++++++++++++++++++to 0.0149333
Heightened Def Con from 0.0149667 ++++++++++++++++++++to 0.0149667
Heightened Def Con from 0.0149688 +++++++++++++++++++to 0.0149688
Heightened Def Con from 0.015 ++++++++++++++++++++to 0.015
Heightened Def Con from 0.0150313 +++++++++++++++++++to 0.0150313
Heightened Def Con from 0.0150333 ++++++++++++++++++++to 0.0150333
Heightened Def Con from 0.0150667 ++++++++++++++++++++to 0.0150667
Heightened Def Con from 0.0150938 +++++++++++++++++++to 0.0150938
Heightened Def Con from 0.0151 ++++++++++++++++++++to 0.0151
Heightened Def Con from 0.0151333 ++++++++++++++++++++to 0.0151333
Heightened Def Con from 0.0151563 +++++++++++++++++++to 0.0151563
Heightened Def Con from 0.0151667 ++++++++++++++++++++to 0.0151667
Heightened Def Con from 0.0152 ++++++++++++++++++++to 0.0152
Heightened Def Con from 0.0152188 +++++++++++++++++++to 0.0152188
Heightened Def Con from 0.0152333 ++++++++++++++++++++to 0.0152333
Heightened Def Con from 0.0152667 ++++++++++++++++++++to 0.0152667
Heightened Def Con from 0.0152813 +++++++++++++++++++to 0.0152813
Heightened Def Con from 0.0153 ++++++++++++++++++++to 0.0153
Heightened Def Con from 0.0153333 ++++++++++++++++++++to 0.0153333
Heightened Def Con from 0.0153438 +++++++++++++++++++to 0.0153438
Heightened Def Con from 0.0153667 ++++++++++++++++++++to 0.0153667
Heightened Def Con from 0.0154 ++++++++++++++++++++to 0.0154
Heightened Def Con from 0.0154063 +++++++++++++++++++to 0.0154063
Heightened Def Con from 0.0154333 ++++++++++++++++++++to 0.0154333
Heightened Def Con from 0.0154667 ++++++++++++++++++++to 0.0154667
Heightened Def Con from 0.0154688 +++++++++++++++++++to 0.0154688
Heightened Def Con from 0.0155 ++++++++++++++++++++to 0.0155
Heightened Def Con from 0.0155313 +++++++++++++++++++to 0.0155313
Heightened Def Con from 0.0155333 ++++++++++++++++++++to 0.0155333
Heightened Def Con from 0.0155667 ++++++++++++++++++++to 0.0155667
Heightened Def Con from 0.0155938 +++++++++++++++++++to 0.0155938
Heightened Def Con from 0.0156 ++++++++++++++++++++to 0.0156
Heightened Def Con from 0.0156333 ++++++++++++++++++++to 0.0156333
Heightened Def Con from 0.0156563 +++++++++++++++++++to 0.0156563
Heightened Def Con from 0.0156667 ++++++++++++++++++++to 0.0156667
Heightened Def Con from 0.0157 ++++++++++++++++++++to 0.0157
Heightened Def Con from 0.0157188 +++++++++++++++++++to 0.0157188
Heightened Def Con from 0.0157333 ++++++++++++++++++++to 0.0157333
Heightened Def Con from 0.0157667 ++++++++++++++++++++to 0.0157667
Heightened Def Con from 0.0157813 +++++++++++++++++++to 0.0157813
Heightened Def Con from 0.0158 ++++++++++++++++++++to 0.0158
Heightened Def Con from 0.0158333 ++++++++++++++++++++to 0.0158333
Heightened Def Con from 0.0158438 +++++++++++++++++++to 0.0158438
Heightened Def Con from 0.0158667 ++++++++++++++++++++to 0.0158667
Heightened Def Con from 0.0159 ++++++++++++++++++++to 0.0159
Heightened Def Con from 0.0159063 +++++++++++++++++++to 0.0159063
Heightened Def Con from 0.0159333 ++++++++++++++++++++to 0.0159333
Heightened Def Con from 0.0159667 ++++++++++++++++++++to 0.0159667
Heightened Def Con from 0.0159688 +++++++++++++++++++to 0.0159688
Heightened Def Con from 0.016 ++++++++++++++++++++to 0.016
Heightened Def Con from 0.0160313 +++++++++++++++++++to 0.0160313
Heightened Def Con from 0.0160333 ++++++++++++++++++++to 0.0160333
Heightened Def Con from 0.0160667 ++++++++++++++++++++to 0.0160667
Heightened Def Con from 0.0160938 +++++++++++++++++++to 0.0160938
Heightened Def Con from 0.0161 ++++++++++++++++++++to 0.0161
Heightened Def Con from 0.0161333 ++++++++++++++++++++to 0.0161333
Heightened Def Con from 0.0161563 +++++++++++++++++++to 0.0161563
Heightened Def Con from 0.0161667 ++++++++++++++++++++to 0.0161667
Heightened Def Con from 0.0162 ++++++++++++++++++++to 0.0162
Heightened Def Con from 0.0162188 +++++++++++++++++++to 0.0162188
Heightened Def Con from 0.0162333 ++++++++++++++++++++to 0.0162333
Heightened Def Con from 0.0162667 ++++++++++++++++++++to 0.0162667
Heightened Def Con from 0.0162813 +++++++++++++++++++to 0.0162813
Heightened Def Con from 0.0163 ++++++++++++++++++++to 0.0163
Heightened Def Con from 0.0163333 ++++++++++++++++++++to 0.0163333
Heightened Def Con from 0.0163438 +++++++++++++++++++to 0.0163438
Heightened Def Con from 0.0163667 ++++++++++++++++++++to 0.0163667
Heightened Def Con from 0.0164 ++++++++++++++++++++to 0.0164
Heightened Def Con from 0.0164063 +++++++++++++++++++to 0.0164063
Heightened Def Con from 0.0164333 ++++++++++++++++++++to 0.0164333
Heightened Def Con from 0.0164667 ++++++++++++++++++++to 0.0164667
Heightened Def Con from 0.0164688 +++++++++++++++++++to 0.0164688
Heightened Def Con from 0.0165 ++++++++++++++++++++to 0.0165
Heightened Def Con from 0.0165313 +++++++++++++++++++to 0.0165313
Heightened Def Con from 0.0165333 ++++++++++++++++++++to 0.0165333
Heightened Def Con from 0.0165667 ++++++++++++++++++++to 0.0165667
Heightened Def Con from 0.0165938 +++++++++++++++++++to 0.0165938
Heightened Def Con from 0.0166 ++++++++++++++++++++to 0.0166
Heightened Def Con from 0.0166333 ++++++++++++++++++++to 0.0166333
Heightened Def Con from 0.0166563 +++++++++++++++++++to 0.0166563
Heightened Def Con from 0.0166667 ++++++++++++++++++++to 0.0166667
Heightened Def Con from 0.0167 ++++++++++++++++++++to 0.0167
Heightened Def Con from 0.0167188 +++++++++++++++++++to 0.0167188
Heightened Def Con from 0.0167333 ++++++++++++++++++++to 0.0167333
Heightened Def Con from 0.0167667 ++++++++++++++++++++to 0.0167667
Heightened Def Con from 0.0167813 +++++++++++++++++++to 0.0167813
Heightened Def Con from 0.0168 ++++++++++++++++++++to 0.0168
Heightened Def Con from 0.0168333 ++++++++++++++++++++to 0.0168333
Heightened Def Con from 0.0168438 +++++++++++++++++++to 0.0168438
Heightened Def Con from 0.0168667 ++++++++++++++++++++to 0.0168667
Heightened Def Con from 0.0169 ++++++++++++++++++++to 0.0169
Heightened Def Con from 0.0169063 +++++++++++++++++++to 0.0169063
Heightened Def Con from 0.0169333 ++++++++++++++++++++to 0.0169333
Heightened Def Con from 0.0169667 ++++++++++++++++++++to 0.0169667
Heightened Def Con from 0.0169688 +++++++++++++++++++to 0.0169688
Heightened Def Con from 0.017 ++++++++++++++++++++to 0.017
Heightened Def Con from 0.0170313 +++++++++++++++++++to 0.0170313
Heightened Def Con from 0.0170333 ++++++++++++++++++++to 0.0170333
Heightened Def Con from 0.0170667 ++++++++++++++++++++to 0.0170667
Heightened Def Con from 0.0170938 +++++++++++++++++++to 0.0170938
Heightened Def Con from 0.0171 ++++++++++++++++++++to 0.0171
Heightened Def Con from 0.0171333 ++++++++++++++++++++to 0.0171333
Heightened Def Con from 0.0171563 +++++++++++++++++++to 0.0171563
Heightened Def Con from 0.0171667 ++++++++++++++++++++to 0.0171667
Heightened Def Con from 0.0172 ++++++++++++++++++++to 0.0172
Heightened Def Con from 0.0172188 +++++++++++++++++++to 0.0172188
Heightened Def Con from 0.0172333 ++++++++++++++++++++to 0.0172333
Heightened Def Con from 0.0172667 ++++++++++++++++++++to 0.0172667
Heightened Def Con from 0.0172813 +++++++++++++++++++to 0.0172813
Heightened Def Con from 0.0173 ++++++++++++++++++++to 0.0173
Heightened Def Con from 0.0173333 ++++++++++++++++++++to 0.0173333
Heightened Def Con from 0.0173438 +++++++++++++++++++to 0.0173438
Heightened Def Con from 0.0173667 ++++++++++++++++++++to 0.0173667
Heightened Def Con from 0.0174 ++++++++++++++++++++to 0.0174
Heightened Def Con from 0.0174063 +++++++++++++++++++to 0.0174063
Heightened Def Con from 0.0174333 ++++++++++++++++++++to 0.0174333
Heightened Def Con from 0.0174667 ++++++++++++++++++++to 0.0174667
Heightened Def Con from 0.0174688 +++++++++++++++++++to 0.0174688
Heightened Def Con from 0.0175 ++++++++++++++++++++to 0.0175
Heightened Def Con from 0.0175313 +++++++++++++++++++to 0.0175313
Heightened Def Con from 0.0175333 ++++++++++++++++++++to 0.0175333
Heightened Def Con from 0.0175667 ++++++++++++++++++++to 0.0175667
Heightened Def Con from 0.0175938 +++++++++++++++++++to 0.0175938
Heightened Def Con from 0.0176 ++++++++++++++++++++to 0.0176
Heightened Def Con from 0.0176333 ++++++++++++++++++++to 0.0176333
Heightened Def Con from 0.0176563 +++++++++++++++++++to 0.0176563
Heightened Def Con from 0.0176667 ++++++++++++++++++++to 0.0176667
Heightened Def Con from 0.0177 ++++++++++++++++++++to 0.0177
Heightened Def Con from 0.0177188 +++++++++++++++++++to 0.0177188
Heightened Def Con from 0.0177333 ++++++++++++++++++++to 0.0177333
Heightened Def Con from 0.0177667 ++++++++++++++++++++to 0.0177667
Heightened Def Con from 0.0177813 +++++++++++++++++++to 0.0177813
Heightened Def Con from 0.0178 ++++++++++++++++++++to 0.0178
Heightened Def Con from 0.0178333 ++++++++++++++++++++to 0.0178333
Heightened Def Con from 0.0178438 +++++++++++++++++++to 0.0178438
Heightened Def Con from 0.0178667 ++++++++++++++++++++to 0.0178667
Heightened Def Con from 0.0179 ++++++++++++++++++++to 0.0179
Heightened Def Con from 0.0179063 +++++++++++++++++++to 0.0179063
Heightened Def Con from 0.0179333 ++++++++++++++++++++to 0.0179333
Heightened Def Con from 0.0179667 ++++++++++++++++++++to 0.0179667
Heightened Def Con from 0.0179688 +++++++++++++++++++to 0.0179688
Heightened Def Con from 0.018 ++++++++++++++++++++to 0.018
Heightened Def Con from 0.0180313 +++++++++++++++++++to 0.0180313
Heightened Def Con from 0.0180333 ++++++++++++++++++++to 0.0180333
Heightened Def Con from 0.0180667 ++++++++++++++++++++to 0.0180667
Heightened Def Con from 0.0180938 +++++++++++++++++++to 0.0180938
Heightened Def Con from 0.0181 ++++++++++++++++++++to 0.0181
Heightened Def Con from 0.0181333 ++++++++++++++++++++to 0.0181333
Heightened Def Con from 0.0181563 +++++++++++++++++++to 0.0181563
Heightened Def Con from 0.0181667 ++++++++++++++++++++to 0.0181667
Heightened Def Con from 0.0182 ++++++++++++++++++++to 0.0182
Heightened Def Con from 0.0182188 +++++++++++++++++++to 0.0182188
Heightened Def Con from 0.0182333 ++++++++++++++++++++to 0.0182333
Heightened Def Con from 0.0182667 ++++++++++++++++++++to 0.0182667
Heightened Def Con from 0.0182813 +++++++++++++++++++to 0.0182813
Heightened Def Con from 0.0183 ++++++++++++++++++++to 0.0183
Heightened Def Con from 0.0183333 ++++++++++++++++++++to 0.0183333
Heightened Def Con from 0.0183438 +++++++++++++++++++to 0.0183438
Heightened Def Con from 0.0183667 ++++++++++++++++++++to 0.0183667
Heightened Def Con from 0.0184 ++++++++++++++++++++to 0.0184
Heightened Def Con from 0.0184063 +++++++++++++++++++to 0.0184063
Heightened Def Con from 0.0184333 ++++++++++++++++++++to 0.0184333
Heightened Def Con from 0.0184667 ++++++++++++++++++++to 0.0184667
Heightened Def Con from 0.0184688 +++++++++++++++++++to 0.0184688
Heightened Def Con from 0.0185 ++++++++++++++++++++to 0.0185
Heightened Def Con from 0.0185313 +++++++++++++++++++to 0.0185313
Heightened Def Con from 0.0185333 ++++++++++++++++++++to 0.0185333
Heightened Def Con from 0.0185667 ++++++++++++++++++++to 0.0185667
Heightened Def Con from 0.0185938 +++++++++++++++++++to 0.0185938
Heightened Def Con from 0.0186 ++++++++++++++++++++to 0.0186
Heightened Def Con from 0.0186333 ++++++++++++++++++++to 0.0186333
Heightened Def Con from 0.0186563 +++++++++++++++++++to 0.0186563
Heightened Def Con from 0.0186667 ++++++++++++++++++++to 0.0186667
Heightened Def Con from 0.0187 ++++++++++++++++++++to 0.0187
Heightened Def Con from 0.0187188 +++++++++++++++++++to 0.0187188
Heightened Def Con from 0.0187333 ++++++++++++++++++++to 0.0187333
Heightened Def Con from 0.0187667 ++++++++++++++++++++to 0.0187667
Heightened Def Con from 0.0187813 +++++++++++++++++++to 0.0187813
Heightened Def Con from 0.0188 ++++++++++++++++++++to 0.0188
Heightened Def Con from 0.0188333 ++++++++++++++++++++to 0.0188333
Heightened Def Con from 0.0188438 +++++++++++++++++++to 0.0188438
Heightened Def Con from 0.0188667 ++++++++++++++++++++to 0.0188667
Heightened Def Con from 0.0189 ++++++++++++++++++++to 0.0189
Heightened Def Con from 0.0189063 +++++++++++++++++++to 0.0189063
Heightened Def Con from 0.0189333 ++++++++++++++++++++to 0.0189333
Heightened Def Con from 0.0189667 ++++++++++++++++++++to 0.0189667
Heightened Def Con from 0.0189688 +++++++++++++++++++to 0.0189688
Heightened Def Con from 0.019 ++++++++++++++++++++to 0.019
Heightened Def Con from 0.0190313 +++++++++++++++++++to 0.0190313
Heightened Def Con from 0.0190333 ++++++++++++++++++++to 0.0190333
Heightened Def Con from 0.0190667 ++++++++++++++++++++to 0.0190667
Heightened Def Con from 0.0190938 +++++++++++++++++++to 0.0190938
Heightened Def Con from 0.0191 ++++++++++++++++++++to 0.0191
Heightened Def Con from 0.0191333 ++++++++++++++++++++to 0.0191333
Heightened Def Con from 0.0191563 +++++++++++++++++++to 0.0191563
Heightened Def Con from 0.0191667 ++++++++++++++++++++to 0.0191667
Heightened Def Con from 0.0192 ++++++++++++++++++++to 0.0192
Heightened Def Con from 0.0192188 +++++++++++++++++++to 0.0192188
Heightened Def Con from 0.0192333 ++++++++++++++++++++to 0.0192333
Heightened Def Con from 0.0192667 ++++++++++++++++++++to 0.0192667
Heightened Def Con from 0.0192813 +++++++++++++++++++to 0.0192813
Heightened Def Con from 0.0193 ++++++++++++++++++++to 0.0193
Heightened Def Con from 0.0193333 ++++++++++++++++++++to 0.0193333
Heightened Def Con from 0.0193438 +++++++++++++++++++to 0.0193438
Heightened Def Con from 0.0193667 ++++++++++++++++++++to 0.0193667
Heightened Def Con from 0.0194 ++++++++++++++++++++to 0.0194
Heightened Def Con from 0.0194063 +++++++++++++++++++to 0.0194063
Heightened Def Con from 0.0194333 ++++++++++++++++++++to 0.0194333
Heightened Def Con from 0.0194667 ++++++++++++++++++++to 0.0194667
Heightened Def Con from 0.0194688 +++++++++++++++++++to 0.0194688
Heightened Def Con from 0.0195 ++++++++++++++++++++to 0.0195
Heightened Def Con from 0.0195313 +++++++++++++++++++to 0.0195313
Heightened Def Con from 0.0195333 ++++++++++++++++++++to 0.0195333
Heightened Def Con from 0.0195667 ++++++++++++++++++++to 0.0195667
Heightened Def Con from 0.0195938 +++++++++++++++++++to 0.0195938
Heightened Def Con from 0.0196 ++++++++++++++++++++to 0.0196
Heightened Def Con from 0.0196333 ++++++++++++++++++++to 0.0196333
Heightened Def Con from 0.0196563 +++++++++++++++++++to 0.0196563
Heightened Def Con from 0.0196667 ++++++++++++++++++++to 0.0196667
Heightened Def Con from 0.0197 ++++++++++++++++++++to 0.0197
Heightened Def Con from 0.0197188 +++++++++++++++++++to 0.0197188
Heightened Def Con from 0.0197333 ++++++++++++++++++++to 0.0197333
Heightened Def Con from 0.0197667 ++++++++++++++++++++to 0.0197667
Heightened Def Con from 0.0197813 +++++++++++++++++++to 0.0197813
Heightened Def Con from 0.0198 ++++++++++++++++++++to 0.0198
Heightened Def Con from 0.0198333 ++++++++++++++++++++to 0.0198333
Heightened Def Con from 0.0198438 +++++++++++++++++++to 0.0198438
Heightened Def Con from 0.0198667 ++++++++++++++++++++to 0.0198667
Heightened Def Con from 0.0199 ++++++++++++++++++++to 0.0199
Heightened Def Con from 0.0199063 +++++++++++++++++++to 0.0199063
Heightened Def Con from 0.0199333 ++++++++++++++++++++to 0.0199333
Heightened Def Con from 0.0199667 ++++++++++++++++++++to 0.0199667
Heightened Def Con from 0.0199688 +++++++++++++++++++to 0.0199688
Heightened Def Con from 0.02 ++++++++++++++++++++to 0.02
Heightened Def Con from 0.0200313 +++++++++++++++++++to 0.0200313
Heightened Def Con from 0.0200333 ++++++++++++++++++++to 0.0200333
Heightened Def Con from 0.0200667 ++++++++++++++++++++to 0.0200667
Heightened Def Con from 0.0200938 +++++++++++++++++++to 0.0200938
Heightened Def Con from 0.0201 ++++++++++++++++++++to 0.0201
Heightened Def Con from 0.0201333 ++++++++++++++++++++to 0.0201333
Heightened Def Con from 0.0201563 +++++++++++++++++++to 0.0201563
Heightened Def Con from 0.0201667 ++++++++++++++++++++to 0.0201667
Heightened Def Con from 0.0202 ++++++++++++++++++++to 0.0202
Heightened Def Con from 0.0202188 +++++++++++++++++++to 0.0202188
Heightened Def Con from 0.0202333 ++++++++++++++++++++to 0.0202333
Heightened Def Con from 0.0202667 ++++++++++++++++++++to 0.0202667
Heightened Def Con from 0.0202813 +++++++++++++++++++to 0.0202813
Heightened Def Con from 0.0203 ++++++++++++++++++++to 0.0203
Heightened Def Con from 0.0203333 ++++++++++++++++++++to 0.0203333
Heightened Def Con from 0.0203438 +++++++++++++++++++to 0.0203438
Heightened Def Con from 0.0203667 ++++++++++++++++++++to 0.0203667
Heightened Def Con from 0.0204 ++++++++++++++++++++to 0.0204
Heightened Def Con from 0.0204063 +++++++++++++++++++to 0.0204063
Heightened Def Con from 0.0204333 ++++++++++++++++++++to 0.0204333
Heightened Def Con from 0.0204667 ++++++++++++++++++++to 0.0204667
Heightened Def Con from 0.0204688 +++++++++++++++++++to 0.0204688
Heightened Def Con from 0.0205 ++++++++++++++++++++to 0.0205
Heightened Def Con from 0.0205313 +++++++++++++++++++to 0.0205313
Heightened Def Con from 0.0205333 ++++++++++++++++++++to 0.0205333
Heightened Def Con from 0.0205667 ++++++++++++++++++++to 0.0205667
Heightened Def Con from 0.0205938 +++++++++++++++++++to 0.0205938
Heightened Def Con from 0.0206 ++++++++++++++++++++to 0.0206
Heightened Def Con from 0.0206333 ++++++++++++++++++++to 0.0206333
Heightened Def Con from 0.0206563 +++++++++++++++++++to 0.0206563
Heightened Def Con from 0.0206667 ++++++++++++++++++++to 0.0206667
Heightened Def Con from 0.0207 ++++++++++++++++++++to 0.0207
Heightened Def Con from 0.0207188 +++++++++++++++++++to 0.0207188
Heightened Def Con from 0.0207333 ++++++++++++++++++++to 0.0207333
Heightened Def Con from 0.0207667 ++++++++++++++++++++to 0.0207667
Heightened Def Con from 0.0207813 +++++++++++++++++++to 0.0207813
Heightened Def Con from 0.0208 ++++++++++++++++++++to 0.0208
Heightened Def Con from 0.0208333 ++++++++++++++++++++to 0.0208333
Heightened Def Con from 0.0208438 +++++++++++++++++++to 0.0208438
Heightened Def Con from 0.0208667 ++++++++++++++++++++to 0.0208667
Heightened Def Con from 0.0209 ++++++++++++++++++++to 0.0209
Heightened Def Con from 0.0209063 +++++++++++++++++++to 0.0209063
Heightened Def Con from 0.0209333 ++++++++++++++++++++to 0.0209333
Heightened Def Con from 0.0209667 ++++++++++++++++++++to 0.0209667
Heightened Def Con from 0.0209688 +++++++++++++++++++to 0.0209688
Heightened Def Con from 0.021 ++++++++++++++++++++to 0.021
Heightened Def Con from 0.0210313 +++++++++++++++++++to 0.0210313
Heightened Def Con from 0.0210333 ++++++++++++++++++++to 0.0210333
Heightened Def Con from 0.0210667 ++++++++++++++++++++to 0.0210667
Heightened Def Con from 0.0210938 +++++++++++++++++++to 0.0210938
Heightened Def Con from 0.0211 ++++++++++++++++++++to 0.0211
Heightened Def Con from 0.0211333 ++++++++++++++++++++to 0.0211333
Heightened Def Con from 0.0211563 +++++++++++++++++++to 0.0211563
Heightened Def Con from 0.0211667 ++++++++++++++++++++to 0.0211667
Heightened Def Con from 0.0212 ++++++++++++++++++++to 0.0212
Heightened Def Con from 0.0212188 +++++++++++++++++++to 0.0212188
Heightened Def Con from 0.0212333 ++++++++++++++++++++to 0.0212333
Heightened Def Con from 0.0212667 ++++++++++++++++++++to 0.0212667
Heightened Def Con from 0.0212813 +++++++++++++++++++to 0.0212813
Heightened Def Con from 0.0213 ++++++++++++++++++++to 0.0213
Heightened Def Con from 0.0213333 ++++++++++++++++++++to 0.0213333
Heightened Def Con from 0.0213438 +++++++++++++++++++to 0.0213438
Heightened Def Con from 0.0213667 ++++++++++++++++++++to 0.0213667
Heightened Def Con from 0.0214 ++++++++++++++++++++to 0.0214
Heightened Def Con from 0.0214063 +++++++++++++++++++to 0.0214063
Heightened Def Con from 0.0214333 ++++++++++++++++++++to 0.0214333
Heightened Def Con from 0.0214667 ++++++++++++++++++++to 0.0214667
Heightened Def Con from 0.0214688 +++++++++++++++++++to 0.0214688
Heightened Def Con from 0.0215 ++++++++++++++++++++to 0.0215
Heightened Def Con from 0.0215313 +++++++++++++++++++to 0.0215313
Heightened Def Con from 0.0215333 ++++++++++++++++++++to 0.0215333
Heightened Def Con from 0.0215667 ++++++++++++++++++++to 0.0215667
Heightened Def Con from 0.0215938 +++++++++++++++++++to 0.0215938
Heightened Def Con from 0.0216 ++++++++++++++++++++to 0.0216
Heightened Def Con from 0.0216333 ++++++++++++++++++++to 0.0216333
Heightened Def Con from 0.0216563 +++++++++++++++++++to 0.0216563
Heightened Def Con from 0.0216667 ++++++++++++++++++++to 0.0216667
Heightened Def Con from 0.0217 ++++++++++++++++++++to 0.0217
Heightened Def Con from 0.0217188 +++++++++++++++++++to 0.0217188
Heightened Def Con from 0.0217333 ++++++++++++++++++++to 0.0217333
Heightened Def Con from 0.0217667 ++++++++++++++++++++to 0.0217667
Heightened Def Con from 0.0217813 +++++++++++++++++++to 0.0217813
Heightened Def Con from 0.0218 ++++++++++++++++++++to 0.0218
Heightened Def Con from 0.0218333 ++++++++++++++++++++to 0.0218333
Heightened Def Con from 0.0218438 +++++++++++++++++++to 0.0218438
Heightened Def Con from 0.0218667 ++++++++++++++++++++to 0.0218667
Heightened Def Con from 0.0219 ++++++++++++++++++++to 0.0219
Heightened Def Con from 0.0219063 +++++++++++++++++++to 0.0219063
Heightened Def Con from 0.0219333 ++++++++++++++++++++to 0.0219333
Heightened Def Con from 0.0219667 ++++++++++++++++++++to 0.0219667
Heightened Def Con from 0.0219688 +++++++++++++++++++to 0.0219688
Heightened Def Con from 0.022 ++++++++++++++++++++to 0.022
Heightened Def Con from 0.0220313 +++++++++++++++++++to 0.0220313
Heightened Def Con from 0.0220333 ++++++++++++++++++++to 0.0220333
Heightened Def Con from 0.0220667 ++++++++++++++++++++to 0.0220667
Heightened Def Con from 0.0220938 +++++++++++++++++++to 0.0220938
Heightened Def Con from 0.0221 ++++++++++++++++++++to 0.0221
Heightened Def Con from 0.0221333 ++++++++++++++++++++to 0.0221333
Heightened Def Con from 0.0221563 +++++++++++++++++++to 0.0221563
Heightened Def Con from 0.0221667 ++++++++++++++++++++to 0.0221667
Heightened Def Con from 0.0222 ++++++++++++++++++++to 0.0222
Heightened Def Con from 0.0222188 +++++++++++++++++++to 0.0222188
Heightened Def Con from 0.0222333 ++++++++++++++++++++to 0.0222333
Heightened Def Con from 0.0222667 ++++++++++++++++++++to 0.0222667
Heightened Def Con from 0.0222813 +++++++++++++++++++to 0.0222813
Heightened Def Con from 0.0223 ++++++++++++++++++++to 0.0223
Heightened Def Con from 0.0223333 ++++++++++++++++++++to 0.0223333
Heightened Def Con from 0.0223438 +++++++++++++++++++to 0.0223438
Heightened Def Con from 0.0223667 ++++++++++++++++++++to 0.0223667
Heightened Def Con from 0.0224 ++++++++++++++++++++to 0.0224
Heightened Def Con from 0.0224063 +++++++++++++++++++to 0.0224063
Heightened Def Con from 0.0224333 ++++++++++++++++++++to 0.0224333
Heightened Def Con from 0.0224667 ++++++++++++++++++++to 0.0224667
Heightened Def Con from 0.0224688 +++++++++++++++++++to 0.0224688
Heightened Def Con from 0.0225 ++++++++++++++++++++to 0.0225
Heightened Def Con from 0.0225313 +++++++++++++++++++to 0.0225313
Heightened Def Con from 0.0225333 ++++++++++++++++++++to 0.0225333
Heightened Def Con from 0.0225667 ++++++++++++++++++++to 0.0225667
Heightened Def Con from 0.0225938 +++++++++++++++++++to 0.0225938
Heightened Def Con from 0.0226 ++++++++++++++++++++to 0.0226
Heightened Def Con from 0.0226333 ++++++++++++++++++++to 0.0226333
Heightened Def Con from 0.0226563 +++++++++++++++++++to 0.0226563
Heightened Def Con from 0.0226667 ++++++++++++++++++++to 0.0226667
Heightened Def Con from 0.0227 ++++++++++++++++++++to 0.0227
Heightened Def Con from 0.0227188 +++++++++++++++++++to 0.0227188
Heightened Def Con from 0.0227333 ++++++++++++++++++++to 0.0227333
Heightened Def Con from 0.0227667 ++++++++++++++++++++to 0.0227667
Heightened Def Con from 0.0227813 +++++++++++++++++++to 0.0227813
Heightened Def Con from 0.0228 ++++++++++++++++++++to 0.0228
Heightened Def Con from 0.0228333 ++++++++++++++++++++to 0.0228333
Heightened Def Con from 0.0228438 +++++++++++++++++++to 0.0228438
Heightened Def Con from 0.0228667 ++++++++++++++++++++to 0.0228667
Heightened Def Con from 0.0229 ++++++++++++++++++++to 0.0229
Heightened Def Con from 0.0229063 +++++++++++++++++++to 0.0229063
Heightened Def Con from 0.0229333 ++++++++++++++++++++to 0.0229333
Heightened Def Con from 0.0229667 ++++++++++++++++++++to 0.0229667
Heightened Def Con from 0.0229688 +++++++++++++++++++to 0.0229688
Heightened Def Con from 0.023 ++++++++++++++++++++to 0.023
Heightened Def Con from 0.0230313 +++++++++++++++++++to 0.0230313
Heightened Def Con from 0.0230333 ++++++++++++++++++++to 0.0230333
Heightened Def Con from 0.0230667 ++++++++++++++++++++to 0.0230667
Heightened Def Con from 0.0230938 +++++++++++++++++++to 0.0230938
Heightened Def Con from 0.0231 ++++++++++++++++++++to 0.0231
Heightened Def Con from 0.0231333 ++++++++++++++++++++to 0.0231333
Heightened Def Con from 0.0231563 +++++++++++++++++++to 0.0231563
Heightened Def Con from 0.0231667 ++++++++++++++++++++to 0.0231667
Heightened Def Con from 0.0232 ++++++++++++++++++++to 0.0232
Heightened Def Con from 0.0232188 +++++++++++++++++++to 0.0232188
Heightened Def Con from 0.0232333 ++++++++++++++++++++to 0.0232333
Heightened Def Con from 0.0232667 ++++++++++++++++++++to 0.0232667
Heightened Def Con from 0.0232813 +++++++++++++++++++to 0.0232813
Heightened Def Con from 0.0233 ++++++++++++++++++++to 0.0233
Heightened Def Con from 0.0233333 ++++++++++++++++++++to 0.0233333
Heightened Def Con from 0.0233438 +++++++++++++++++++to 0.0233438
Heightened Def Con from 0.0233667 ++++++++++++++++++++to 0.0233667
Heightened Def Con from 0.0234 ++++++++++++++++++++to 0.0234
Heightened Def Con from 0.0234063 +++++++++++++++++++to 0.0234063
Heightened Def Con from 0.0234333 ++++++++++++++++++++to 0.0234333
Heightened Def Con from 0.0234667 ++++++++++++++++++++to 0.0234667
Heightened Def Con from 0.0234688 +++++++++++++++++++to 0.0234688
Heightened Def Con from 0.0235 ++++++++++++++++++++to 0.0235
Heightened Def Con from 0.0235313 +++++++++++++++++++to 0.0235313
Heightened Def Con from 0.0235333 ++++++++++++++++++++to 0.0235333
Heightened Def Con from 0.0235667 ++++++++++++++++++++to 0.0235667
Heightened Def Con from 0.0235938 +++++++++++++++++++to 0.0235938
Heightened Def Con from 0.0236 ++++++++++++++++++++to 0.0236
Heightened Def Con from 0.0236333 ++++++++++++++++++++to 0.0236333
Heightened Def Con from 0.0236563 +++++++++++++++++++to 0.0236563
Heightened Def Con from 0.0236667 ++++++++++++++++++++to 0.0236667
Heightened Def Con from 0.0237 ++++++++++++++++++++to 0.0237
Heightened Def Con from 0.0237188 +++++++++++++++++++to 0.0237188
Heightened Def Con from 0.0237333 ++++++++++++++++++++to 0.0237333
Heightened Def Con from 0.0237667 ++++++++++++++++++++to 0.0237667
Heightened Def Con from 0.0237813 +++++++++++++++++++to 0.0237813
Heightened Def Con from 0.0238 ++++++++++++++++++++to 0.0238
Heightened Def Con from 0.0238333 ++++++++++++++++++++to 0.0238333
Heightened Def Con from 0.0238438 +++++++++++++++++++to 0.0238438
Heightened Def Con from 0.0238667 ++++++++++++++++++++to 0.0238667
Heightened Def Con from 0.0239 ++++++++++++++++++++to 0.0239
Heightened Def Con from 0.0239063 +++++++++++++++++++to 0.0239063
Heightened Def Con from 0.0239333 ++++++++++++++++++++to 0.0239333
Heightened Def Con from 0.0239667 ++++++++++++++++++++to 0.0239667
Heightened Def Con from 0.0239688 +++++++++++++++++++to 0.0239688
Heightened Def Con from 0.024 ++++++++++++++++++++to 0.024
Heightened Def Con from 0.0240313 +++++++++++++++++++to 0.0240313
Heightened Def Con from 0.0240333 ++++++++++++++++++++to 0.0240333
Heightened Def Con from 0.0240667 ++++++++++++++++++++to 0.0240667
Heightened Def Con from 0.0240938 +++++++++++++++++++to 0.0240938
Heightened Def Con from 0.0241 ++++++++++++++++++++to 0.0241
Heightened Def Con from 0.0241333 ++++++++++++++++++++to 0.0241333
Heightened Def Con from 0.0241563 +++++++++++++++++++to 0.0241563
Heightened Def Con from 0.0241667 ++++++++++++++++++++to 0.0241667
Heightened Def Con from 0.0242 ++++++++++++++++++++to 0.0242
Heightened Def Con from 0.0242188 +++++++++++++++++++to 0.0242188
Heightened Def Con from 0.0242333 ++++++++++++++++++++to 0.0242333
Heightened Def Con from 0.0242667 ++++++++++++++++++++to 0.0242667
Heightened Def Con from 0.0242813 +++++++++++++++++++to 0.0242813
Heightened Def Con from 0.0243 ++++++++++++++++++++to 0.0243
Heightened Def Con from 0.0243333 ++++++++++++++++++++to 0.0243333
Heightened Def Con from 0.0243438 +++++++++++++++++++to 0.0243438
Heightened Def Con from 0.0243667 ++++++++++++++++++++to 0.0243667
Heightened Def Con from 0.0244 ++++++++++++++++++++to 0.0244
Heightened Def Con from 0.0244063 +++++++++++++++++++to 0.0244063
Heightened Def Con from 0.0244333 ++++++++++++++++++++to 0.0244333
Heightened Def Con from 0.0244667 ++++++++++++++++++++to 0.0244667
Heightened Def Con from 0.0244688 +++++++++++++++++++to 0.0244688
Heightened Def Con from 0.0245 ++++++++++++++++++++to 0.0245
Heightened Def Con from 0.0245313 +++++++++++++++++++to 0.0245313
Heightened Def Con from 0.0245333 ++++++++++++++++++++to 0.0245333
Heightened Def Con from 0.0245667 ++++++++++++++++++++to 0.0245667
Heightened Def Con from 0.0245938 +++++++++++++++++++to 0.0245938
Heightened Def Con from 0.0246 ++++++++++++++++++++to 0.0246
Heightened Def Con from 0.0246333 ++++++++++++++++++++to 0.0246333
Heightened Def Con from 0.0246563 +++++++++++++++++++to 0.0246563
Heightened Def Con from 0.0246667 ++++++++++++++++++++to 0.0246667
Heightened Def Con from 0.0247 ++++++++++++++++++++to 0.0247
Heightened Def Con from 0.0247188 +++++++++++++++++++to 0.0247188
Heightened Def Con from 0.0247333 ++++++++++++++++++++to 0.0247333
Heightened Def Con from 0.0247667 ++++++++++++++++++++to 0.0247667
Heightened Def Con from 0.0247813 +++++++++++++++++++to 0.0247813
Heightened Def Con from 0.0248 ++++++++++++++++++++to 0.0248
Heightened Def Con from 0.0248333 ++++++++++++++++++++to 0.0248333
Heightened Def Con from 0.0248438 +++++++++++++++++++to 0.0248438
Heightened Def Con from 0.0248667 ++++++++++++++++++++to 0.0248667
Heightened Def Con from 0.0249 ++++++++++++++++++++to 0.0249
Heightened Def Con from 0.0249063 +++++++++++++++++++to 0.0249063
Heightened Def Con from 0.0249333 ++++++++++++++++++++to 0.0249333
Heightened Def Con from 0.0249667 ++++++++++++++++++++to 0.0249667
Heightened Def Con from 0.0249688 +++++++++++++++++++to 0.0249688
Heightened Def Con from 0.025 ++++++++++++++++++++to 0.025
Heightened Def Con from 0.0250313 +++++++++++++++++++to 0.0250313
Heightened Def Con from 0.0250333 ++++++++++++++++++++to 0.0250333
Heightened Def Con from 0.0250667 ++++++++++++++++++++to 0.0250667
Heightened Def Con from 0.0250938 +++++++++++++++++++to 0.0250938
Heightened Def Con from 0.0251 ++++++++++++++++++++to 0.0251
Heightened Def Con from 0.0251333 ++++++++++++++++++++to 0.0251333
Heightened Def Con from 0.0251563 +++++++++++++++++++to 0.0251563
Heightened Def Con from 0.0251667 ++++++++++++++++++++to 0.0251667
Heightened Def Con from 0.0252 ++++++++++++++++++++to 0.0252
Heightened Def Con from 0.0252188 +++++++++++++++++++to 0.0252188
Heightened Def Con from 0.0252333 ++++++++++++++++++++to 0.0252333
Heightened Def Con from 0.0252667 ++++++++++++++++++++to 0.0252667
Heightened Def Con from 0.0252813 +++++++++++++++++++to 0.0252813
Heightened Def Con from 0.0253 ++++++++++++++++++++to 0.0253
Heightened Def Con from 0.0253333 ++++++++++++++++++++to 0.0253333
Heightened Def Con from 0.0253438 +++++++++++++++++++to 0.0253438
Heightened Def Con from 0.0253667 ++++++++++++++++++++to 0.0253667
Heightened Def Con from 0.0254 ++++++++++++++++++++to 0.0254
Heightened Def Con from 0.0254063 +++++++++++++++++++to 0.0254063
Heightened Def Con from 0.0254333 ++++++++++++++++++++to 0.0254333
Heightened Def Con from 0.0254667 ++++++++++++++++++++to 0.0254667
Heightened Def Con from 0.0254688 +++++++++++++++++++to 0.0254688
Heightened Def Con from 0.0255 ++++++++++++++++++++to 0.0255
Heightened Def Con from 0.0255313 +++++++++++++++++++to 0.0255313
Heightened Def Con from 0.0255333 ++++++++++++++++++++to 0.0255333
Heightened Def Con from 0.0255667 ++++++++++++++++++++to 0.0255667
Heightened Def Con from 0.0255938 +++++++++++++++++++to 0.0255938
Heightened Def Con from 0.0256 ++++++++++++++++++++to 0.0256
Heightened Def Con from 0.0256333 ++++++++++++++++++++to 0.0256333
Heightened Def Con from 0.0256563 +++++++++++++++++++to 0.0256563
Heightened Def Con from 0.0256667 ++++++++++++++++++++to 0.0256667
Heightened Def Con from 0.0257 ++++++++++++++++++++to 0.0257
Heightened Def Con from 0.0257188 +++++++++++++++++++to 0.0257188
Heightened Def Con from 0.0257333 ++++++++++++++++++++to 0.0257333
Heightened Def Con from 0.0257667 ++++++++++++++++++++to 0.0257667
Heightened Def Con from 0.0257813 +++++++++++++++++++to 0.0257813
Heightened Def Con from 0.0258 ++++++++++++++++++++to 0.0258
Heightened Def Con from 0.0258333 ++++++++++++++++++++to 0.0258333
Heightened Def Con from 0.0258438 +++++++++++++++++++to 0.0258438
Heightened Def Con from 0.0258667 ++++++++++++++++++++to 0.0258667
Heightened Def Con from 0.0259 ++++++++++++++++++++to 0.0259
Heightened Def Con from 0.0259063 +++++++++++++++++++to 0.0259063
Heightened Def Con from 0.0259333 ++++++++++++++++++++to 0.0259333
Heightened Def Con from 0.0259667 ++++++++++++++++++++to 0.0259667
Heightened Def Con from 0.0259688 +++++++++++++++++++to 0.0259688
Heightened Def Con from 0.026 ++++++++++++++++++++to 0.026
Heightened Def Con from 0.0260313 +++++++++++++++++++to 0.0260313
Heightened Def Con from 0.0260333 ++++++++++++++++++++to 0.0260333
Heightened Def Con from 0.0260667 ++++++++++++++++++++to 0.0260667
Heightened Def Con from 0.0260938 +++++++++++++++++++to 0.0260938
Heightened Def Con from 0.0261 ++++++++++++++++++++to 0.0261
Heightened Def Con from 0.0261333 ++++++++++++++++++++to 0.0261333
Heightened Def Con from 0.0261563 +++++++++++++++++++to 0.0261563
Heightened Def Con from 0.0261667 ++++++++++++++++++++to 0.0261667
Heightened Def Con from 0.0262 ++++++++++++++++++++to 0.0262
Heightened Def Con from 0.0262188 +++++++++++++++++++to 0.0262188
[...]
Heightened Def Con from 0.3275 ++++++++++++++++++++to 0.3275
Heightened Def Con from 0.328 ++++++++++++++++++++to 0.328
Heightened Def Con from 0.3285 ++++++++++++++++++++to 0.3285
Heightened Def Con from 0.329 ++++++++++++++++++++to 0.329
Heightened Def Con from 0.3295 ++++++++++++++++++++to 0.3295
Heightened Def Con from 0.33 ++++++++++++++++++++to 0.33
Heightened Def Con from 0.331 ++++++++++++++++++++to 0.331
Heightened Def Con from 0.3315 ++++++++++++++++++++to 0.3315
Heightened Def Con from 0.332 ++++++++++++++++++++to 0.332
Heightened Def Con from 0.3325 ++++++++++++++++++++to 0.3325
Heightened Def Con from 0.333 ++++++++++++++++++++to 0.333
Heightened Def Con from 0.3335 ++++++++++++++++++++to 0.3335
Heightened Def Con from 0.334 ++++++++++++++++++++to 0.334
Heightened Def Con from 0.3345 ++++++++++++++++++++to 0.3345
Heightened Def Con from 0.335 ++++++++++++++++++++to 0.335
Heightened Def Con from 0.3355 ++++++++++++++++++++to 0.3355
Heightened Def Con from 0.336 ++++++++++++++++++++to 0.336
Heightened Def Con from 0.3365 ++++++++++++++++++++to 0.3365
Heightened Def Con from 0.337 ++++++++++++++++++++to 0.337
Heightened Def Con from 0.3375 ++++++++++++++++++++to 0.3375
Heightened Def Con from 0.338 ++++++++++++++++++++to 0.338
Heightened Def Con from 0.3385 ++++++++++++++++++++to 0.3385
Heightened Def Con from 0.339 ++++++++++++++++++++to 0.339
Heightened Def Con from 0.3395 ++++++++++++++++++++to 0.3395
Heightened Def Con from 0.34 ++++++++++++++++++++to 0.34
Heightened Def Con from 0.3405 ++++++++++++++++++++to 0.3405
Heightened Def Con from 0.341 ++++++++++++++++++++to 0.341
Heightened Def Con from 0.3415 ++++++++++++++++++++to 0.3415
Heightened Def Con from 0.3425 ++++++++++++++++++++to 0.3425
Heightened Def Con from 0.343 ++++++++++++++++++++to 0.343
Heightened Def Con from 0.3435 ++++++++++++++++++++to 0.3435
Heightened Def Con from 0.344 ++++++++++++++++++++to 0.344
Heightened Def Con from 0.3445 ++++++++++++++++++++to 0.3445
Heightened Def Con from 0.345 ++++++++++++++++++++to 0.345
Heightened Def Con from 0.3455 ++++++++++++++++++++to 0.3455
Heightened Def Con from 0.346 ++++++++++++++++++++to 0.346
Heightened Def Con from 0.3465 ++++++++++++++++++++to 0.3465
Heightened Def Con from 0.347 ++++++++++++++++++++to 0.347
Heightened Def Con from 0.348 ++++++++++++++++++++to 0.348
Heightened Def Con from 0.3485 ++++++++++++++++++++to 0.3485
Heightened Def Con from 0.349 ++++++++++++++++++++to 0.349
Heightened Def Con from 0.3495 ++++++++++++++++++++to 0.3495
Heightened Def Con from 0.35 ++++++++++++++++++++to 0.35
Heightened Def Con from 0.3505 ++++++++++++++++++++to 0.3505
Heightened Def Con from 0.351 ++++++++++++++++++++to 0.351
Heightened Def Con from 0.3515 ++++++++++++++++++++to 0.3515
Heightened Def Con from 0.352 ++++++++++++++++++++to 0.352
Heightened Def Con from 0.3525 ++++++++++++++++++++to 0.3525
Heightened Def Con from 0.353 ++++++++++++++++++++to 0.353
Heightened Def Con from 0.3535 ++++++++++++++++++++to 0.3535
Heightened Def Con from 0.354 ++++++++++++++++++++to 0.354
Heightened Def Con from 0.3545 ++++++++++++++++++++to 0.3545
Heightened Def Con from 0.355 ++++++++++++++++++++to 0.355
Heightened Def Con from 0.3555 ++++++++++++++++++++to 0.3555
Heightened Def Con from 0.356 ++++++++++++++++++++to 0.356
Heightened Def Con from 0.3565 ++++++++++++++++++++to 0.3565
Heightened Def Con from 0.357 ++++++++++++++++++++to 0.357
Heightened Def Con from 0.3575 ++++++++++++++++++++to 0.3575
Heightened Def Con from 0.358 ++++++++++++++++++++to 0.358
Heightened Def Con from 0.3585 ++++++++++++++++++++to 0.3585
Heightened Def Con from 0.3595 ++++++++++++++++++++to 0.3595
Heightened Def Con from 0.36 ++++++++++++++++++++to 0.36
Heightened Def Con from 0.3605 ++++++++++++++++++++to 0.3605
Heightened Def Con from 0.361 ++++++++++++++++++++to 0.361
Heightened Def Con from 0.3615 ++++++++++++++++++++to 0.3615
Heightened Def Con from 0.362 ++++++++++++++++++++to 0.362
Heightened Def Con from 0.362467 ++++++++++++++++++++to 0.362467
Heightened Def Con from 0.3625 ++++++++++++++++++++to 0.3625
Heightened Def Con from 0.363 ++++++++++++++++++++to 0.363
Heightened Def Con from 0.3635 ++++++++++++++++++++to 0.3635
Heightened Def Con from 0.364 ++++++++++++++++++++to 0.364
Heightened Def Con from 0.3645 ++++++++++++++++++++to 0.3645
Heightened Def Con from 0.365 ++++++++++++++++++++to 0.365
Heightened Def Con from 0.3655 ++++++++++++++++++++to 0.3655
Heightened Def Con from 0.366 ++++++++++++++++++++to 0.366
Heightened Def Con from 0.3665 ++++++++++++++++++++to 0.3665
Heightened Def Con from 0.367 ++++++++++++++++++++to 0.367
Heightened Def Con from 0.3675 ++++++++++++++++++++to 0.3675
Heightened Def Con from 0.368 ++++++++++++++++++++to 0.368
Heightened Def Con from 0.3685 ++++++++++++++++++++to 0.3685
Heightened Def Con from 0.369 ++++++++++++++++++++to 0.369
Heightened Def Con from 0.3695 ++++++++++++++++++++to 0.3695
Heightened Def Con from 0.37 +++++++++++++++++++to 0.37
Heightened Def Con from 0.371 ++++++++++++++++++++to 0.371
Heightened Def Con from 0.3715 ++++++++++++++++++++to 0.3715
Heightened Def Con from 0.372 ++++++++++++++++++++to 0.372
Heightened Def Con from 0.3725 ++++++++++++++++++++to 0.3725
Heightened Def Con from 0.373 ++++++++++++++++++++to 0.373
Heightened Def Con from 0.3735 ++++++++++++++++++++to 0.3735
Heightened Def Con from 0.374 ++++++++++++++++++++to 0.374
Heightened Def Con from 0.3745 ++++++++++++++++++++to 0.3745
Heightened Def Con from 0.375 ++++++++++++++++++++to 0.375
Heightened Def Con from 0.3755 ++++++++++++++++++++to 0.3755
Heightened Def Con from 0.3765 ++++++++++++++++++++to 0.3765
Heightened Def Con from 0.377 ++++++++++++++++++++to 0.377
Heightened Def Con from 0.3775 ++++++++++++++++++++to 0.3775
Heightened Def Con from 0.378 ++++++++++++++++++++to 0.378
Heightened Def Con from 0.3785 ++++++++++++++++++++to 0.3785
Heightened Def Con from 0.379 ++++++++++++++++++++to 0.379
Heightened Def Con from 0.3795 ++++++++++++++++++++to 0.3795
Heightened Def Con from 0.38 ++++++++++++++++++++to 0.38
Heightened Def Con from 0.3805 ++++++++++++++++++++to 0.3805
Heightened Def Con from 0.381 ++++++++++++++++++++to 0.381
Heightened Def Con from 0.382 ++++++++++++++++++++to 0.382
Heightened Def Con from 0.3825 ++++++++++++++++++++to 0.3825
Heightened Def Con from 0.383 ++++++++++++++++++++to 0.383
Heightened Def Con from 0.3835 ++++++++++++++++++++to 0.3835
Heightened Def Con from 0.384 ++++++++++++++++++++to 0.384
Heightened Def Con from 0.3845 ++++++++++++++++++++to 0.3845
Heightened Def Con from 0.385 ++++++++++++++++++++to 0.385
Heightened Def Con from 0.3855 ++++++++++++++++++++to 0.3855
Heightened Def Con from 0.386 ++++++++++++++++++++to 0.386
Heightened Def Con from 0.3865 ++++++++++++++++++++to 0.3865
Heightened Def Con from 0.387 ++++++++++++++++++++to 0.387
Heightened Def Con from 0.388 ++++++++++++++++++++to 0.388
Heightened Def Con from 0.3885 ++++++++++++++++++++to 0.3885
Heightened Def Con from 0.389 ++++++++++++++++++++to 0.389
Heightened Def Con from 0.3895 ++++++++++++++++++++to 0.3895
Heightened Def Con from 0.389969 +++++++++++++++++++to 0.389969
Heightened Def Con from 0.39 ++++++++++++++++++++to 0.39
Heightened Def Con from 0.3905 ++++++++++++++++++++to 0.3905
Heightened Def Con from 0.391 ++++++++++++++++++++to 0.391
Heightened Def Con from 0.391281 +++++++++++++++++++to 0.391281
Heightened Def Con from 0.3915 ++++++++++++++++++++to 0.3915
Heightened Def Con from 0.392 ++++++++++++++++++++to 0.392
Heightened Def Con from 0.3925 ++++++++++++++++++++to 0.3925
Heightened Def Con from 0.3935 ++++++++++++++++++++to 0.3935
Heightened Def Con from 0.394 ++++++++++++++++++++to 0.394
Heightened Def Con from 0.3945 ++++++++++++++++++++to 0.3945
Heightened Def Con from 0.395 ++++++++++++++++++++to 0.395
Heightened Def Con from 0.3955 ++++++++++++++++++++to 0.3955
Heightened Def Con from 0.396 ++++++++++++++++++++to 0.396
Heightened Def Con from 0.3965 ++++++++++++++++++++to 0.3965
Heightened Def Con from 0.397 ++++++++++++++++++++to 0.397
Heightened Def Con from 0.3975 ++++++++++++++++++++to 0.3975
Heightened Def Con from 0.398 ++++++++++++++++++++to 0.398
Heightened Def Con from 0.399 ++++++++++++++++++to 0.399
Heightened Def Con from 0.3995 ++++++++++++++++++++to 0.3995
Heightened Def Con from 0.4 ++++++++++++++++++++to 0.4
Heightened Def Con from 0.4005 ++++++++++++++++++++to 0.4005
Heightened Def Con from 0.401 ++++++++++++++++++++to 0.401
Heightened Def Con from 0.4015 ++++++++++++++++++++to 0.4015
Heightened Def Con from 0.402 ++++++++++++++++++++to 0.402
Heightened Def Con from 0.4025 ++++++++++++++++++++to 0.4025
Heightened Def Con from 0.403 ++++++++++++++++++++to 0.403
Heightened Def Con from 0.4035 ++++++++++++++++++++to 0.4035
Heightened Def Con from 0.404 ++++++++++++++++++++to 0.404
Heightened Def Con from 0.405 ++++++++++++++++++++to 0.405
Heightened Def Con from 0.4055 ++++++++++++++++++++to 0.4055
Heightened Def Con from 0.406 ++++++++++++++++++++to 0.406
Heightened Def Con from 0.4065 ++++++++++++++++++++to 0.4065
Heightened Def Con from 0.407 ++++++++++++++++++++to 0.407
Heightened Def Con from 0.4075 ++++++++++++++++++++to 0.4075
Heightened Def Con from 0.408 ++++++++++++++++++++to 0.408
Heightened Def Con from 0.4085 ++++++++++++++++++++to 0.4085
Heightened Def Con from 0.409 ++++++++++++++++++++to 0.409
Heightened Def Con from 0.4095 ++++++++++++++++++++to 0.4095
Heightened Def Con from 0.4105 ++++++++++++++++to 0.4105
Heightened Def Con from 0.411 ++++++++++++++++++++to 0.411
Heightened Def Con from 0.4115 ++++++++++++++++++++to 0.4115
Heightened Def Con from 0.412 ++++++++++++++++++++to 0.412
Heightened Def Con from 0.4125 ++++++++++++++++++++to 0.4125
Heightened Def Con from 0.413 ++++++++++++++++++++to 0.413
Heightened Def Con from 0.4135 ++++++++++++++++++++to 0.4135
Heightened Def Con from 0.414 ++++++++++++++++++++to 0.414
Heightened Def Con from 0.4145 ++++++++++++++++++++to 0.4145
Heightened Def Con from 0.415 ++++++++++++++++++++to 0.415
Heightened Def Con from 0.4155 ++++++++++++++++++++to 0.4155
Heightened Def Con from 0.4165 ++++++++++++++++++++to 0.4165
Heightened Def Con from 0.417 ++++++++++++++++++++to 0.417
Heightened Def Con from 0.4175 ++++++++++++++++++++to 0.4175
Heightened Def Con from 0.418 ++++++++++++++++++++to 0.418
Heightened Def Con from 0.4185 ++++++++++++++++++++to 0.4185
Heightened Def Con from 0.419 ++++++++++++++++++++to 0.419
Heightened Def Con from 0.4195 ++++++++++++++++++++to 0.4195
Heightened Def Con from 0.42 ++++++++++++++++++++to 0.42
Heightened Def Con from 0.4205 ++++++++++++++++++++to 0.4205
Heightened Def Con from 0.421 ++++++++++++++++++++to 0.421
Heightened Def Con from 0.422 ++++++++++++++++++++to 0.422
Heightened Def Con from 0.4225 ++++++++++++++++++++to 0.4225
Heightened Def Con from 0.423 ++++++++++++++++++++to 0.423
Heightened Def Con from 0.4235 ++++++++++++++++++++to 0.4235
Heightened Def Con from 0.424 ++++++++++++++++++++to 0.424
Heightened Def Con from 0.4245 ++++++++++++++++++++to 0.4245
Heightened Def Con from 0.425 ++++++++++++++++++++to 0.425
Heightened Def Con from 0.4255 ++++++++++++++++++++to 0.4255
Heightened Def Con from 0.426 ++++++++++++++++++++to 0.426
Heightened Def Con from 0.4265 ++++++++++++++++++++to 0.4265
Heightened Def Con from 0.4275 ++++++++++++++++++++to 0.4275
Heightened Def Con from 0.428 ++++++++++++++++++++to 0.428
Heightened Def Con from 0.4285 ++++++++++++++++++++to 0.4285
Heightened Def Con from 0.429 ++++++++++++++++++++to 0.429
Heightened Def Con from 0.4295 ++++++++++++++++++++to 0.4295
Heightened Def Con from 0.43 ++++++++++++++++++++to 0.43
Heightened Def Con from 0.4305 ++++++++++++++++++++to 0.4305
Heightened Def Con from 0.431 ++++++++++++++++++++to 0.431
Heightened Def Con from 0.4315 ++++++++++++++++++++to 0.4315
Heightened Def Con from 0.432 ++++++++++++++++++++to 0.432
Heightened Def Con from 0.4325 ++++++++++++++++++++to 0.4325
Heightened Def Con from 0.4335 ++++++++++++++++++++to 0.4335
Heightened Def Con from 0.434 ++++++++++++++++++++to 0.434
Heightened Def Con from 0.4345 ++++++++++++++++++++to 0.4345
Heightened Def Con from 0.435 ++++++++++++++++++++to 0.435
Heightened Def Con from 0.4355 ++++++++++++++++++++to 0.4355
Heightened Def Con from 0.436 ++++++++++++++++++++to 0.436
Heightened Def Con from 0.4365 ++++++++++++++++++++to 0.4365
Heightened Def Con from 0.437 ++++++++++++++++++++to 0.437
Heightened Def Con from 0.4375 ++++++++++++++++++++to 0.4375
Heightened Def Con from 0.438 ++++++++++++++++++++to 0.438
Heightened Def Con from 0.439 ++++++++++++++++++++to 0.439
Heightened Def Con from 0.4395 ++++++++++++++++++++to 0.4395
Heightened Def Con from 0.44 ++++++++++++++++++++to 0.44
Heightened Def Con from 0.440033 ++++++++++++++++++++to 0.440033
Heightened Def Con from 0.4405 ++++++++++++++++++++to 0.4405
Heightened Def Con from 0.441 ++++++++++++++++++++to 0.441
Heightened Def Con from 0.4415 ++++++++++++++++++++to 0.4415
Heightened Def Con from 0.442 ++++++++++++++++++++to 0.442
Heightened Def Con from 0.4425 ++++++++++++++++++++to 0.4425
Heightened Def Con from 0.443 ++++++++++++++++++++to 0.443
Heightened Def Con from 0.4435 ++++++++++++++++++++to 0.4435
Heightened Def Con from 0.4445 +++++++++++++++++++to 0.4445
Heightened Def Con from 0.445 ++++++++++++++++++++to 0.445
Heightened Def Con from 0.4455 ++++++++++++++++++++to 0.4455
Heightened Def Con from 0.446 ++++++++++++++++++++to 0.446
Heightened Def Con from 0.4465 ++++++++++++++++++++to 0.4465
Heightened Def Con from 0.447 ++++++++++++++++++++to 0.447
Heightened Def Con from 0.4475 ++++++++++++++++++++to 0.4475
Heightened Def Con from 0.448 ++++++++++++++++++++to 0.448
Heightened Def Con from 0.4485 ++++++++++++++++++++to 0.4485
Heightened Def Con from 0.449 ++++++++++++++++++++to 0.449
Heightened Def Con from 0.4495 ++++++++++++++++++++to 0.4495
Heightened Def Con from 0.4505 ++++++++++++++++++++to 0.4505
Heightened Def Con from 0.451 ++++++++++++++++++++to 0.451
Heightened Def Con from 0.4515 ++++++++++++++++++++to 0.4515
Heightened Def Con from 0.452 ++++++++++++++++++++to 0.452
Heightened Def Con from 0.4525 ++++++++++++++++++++to 0.4525
Heightened Def Con from 0.453 ++++++++++++++++++++to 0.453
Heightened Def Con from 0.4535 ++++++++++++++++++++to 0.4535
Heightened Def Con from 0.454 ++++++++++++++++++++to 0.454
Heightened Def Con from 0.4545 ++++++++++++++++++++to 0.4545
Heightened Def Con from 0.455 ++++++++++++++++++++to 0.455
Heightened Def Con from 0.4555 ++++++++++++++++++++to 0.4555
Heightened Def Con from 0.456 ++++++++++++++++++++to 0.456
Heightened Def Con from 0.4565 ++++++++++++++++++++to 0.4565
Heightened Def Con from 0.457 ++++++++++++++++++++to 0.457
Heightened Def Con from 0.4575 ++++++++++++++++++++to 0.4575
Heightened Def Con from 0.458 ++++++++++++++++++++to 0.458
Heightened Def Con from 0.4585 ++++++++++++++++++++to 0.4585
Heightened Def Con from 0.459 ++++++++++++++++++++to 0.459
Heightened Def Con from 0.4595 ++++++++++++++++++++to 0.4595
Heightened Def Con from 0.46 ++++++++++++++++++++to 0.46
Heightened Def Con from 0.460281 +++++++++++++++++++to 0.460281
Heightened Def Con from 0.4605 ++++++++++++++++++++to 0.4605
Heightened Def Con from 0.461 ++++++++++++++++++++to 0.461
Heightened Def Con from 0.462 ++++++++++++++++++++to 0.462
Heightened Def Con from 0.4625 ++++++++++++++++++++to 0.4625
Heightened Def Con from 0.4629 ++++++++++++++++++++to 0.4629
Heightened Def Con from 0.463 ++++++++++++++++++++to 0.463
Heightened Def Con from 0.4635 ++++++++++++++++++++to 0.4635
Heightened Def Con from 0.464 ++++++++++++++++++++to 0.464
Heightened Def Con from 0.4645 ++++++++++++++++++++to 0.4645
Heightened Def Con from 0.465 ++++++++++++++++++++to 0.465
Heightened Def Con from 0.4655 ++++++++++++++++++++to 0.4655
Heightened Def Con from 0.466 ++++++++++++++++++++to 0.466
Heightened Def Con from 0.4665 ++++++++++++++++++++to 0.4665
Heightened Def Con from 0.4675 ++++++++++++++++++++to 0.4675
Heightened Def Con from 0.468 ++++++++++++++++++++to 0.468
Heightened Def Con from 0.4685 ++++++++++++++++++++to 0.4685
Heightened Def Con from 0.469 ++++++++++++++++++++to 0.469
Heightened Def Con from 0.4695 ++++++++++++++++++++to 0.4695
Heightened Def Con from 0.47 ++++++++++++++++++++to 0.47
Heightened Def Con from 0.4705 ++++++++++++++++++++to 0.4705
Heightened Def Con from 0.471 ++++++++++++++++++++to 0.471
Heightened Def Con from 0.4715 ++++++++++++++++++++to 0.4715
Heightened Def Con from 0.472 ++++++++++++++++++++to 0.472
Heightened Def Con from 0.473 ++++++++++++++++++++to 0.473
Heightened Def Con from 0.4735 ++++++++++++++++++++to 0.4735
Heightened Def Con from 0.474 ++++++++++++++++++++to 0.474
Heightened Def Con from 0.4745 ++++++++++++++++++++to 0.4745
Heightened Def Con from 0.475 ++++++++++++++++++++to 0.475
Heightened Def Con from 0.475433 ++++++++++++++++++++to 0.475433
Heightened Def Con from 0.4755 ++++++++++++++++++++to 0.4755
Heightened Def Con from 0.476 ++++++++++++++++++++to 0.476
Heightened Def Con from 0.4765 ++++++++++++++++++++to 0.4765
Heightened Def Con from 0.477 ++++++++++++++++++++to 0.477
Heightened Def Con from 0.4775 ++++++++++++++++++++to 0.4775
Heightened Def Con from 0.478 ++++++++++++++++++++to 0.478
Heightened Def Con from 0.479 ++++++++++++++++++++to 0.479
Heightened Def Con from 0.4795 ++++++++++++++++++++to 0.4795
Heightened Def Con from 0.48 ++++++++++++++++++++to 0.48
Heightened Def Con from 0.4805 ++++++++++++++++++++to 0.4805
Heightened Def Con from 0.481 ++++++++++++++++++++to 0.481
Heightened Def Con from 0.4815 ++++++++++++++++++++to 0.4815
Heightened Def Con from 0.482 ++++++++++++++++++++to 0.482
Heightened Def Con from 0.4825 ++++++++++++++++++++to 0.4825
Heightened Def Con from 0.483 ++++++++++++++++++++to 0.483
Heightened Def Con from 0.4835 ++++++++++++++++++++to 0.4835
Heightened Def Con from 0.4845 ++++++++++++++++++++to 0.4845
Heightened Def Con from 0.485 ++++++++++++++++++++to 0.485
Heightened Def Con from 0.4855 ++++++++++++++++++++to 0.4855
Heightened Def Con from 0.486 ++++++++++++++++++++to 0.486
Heightened Def Con from 0.4865 ++++++++++++++++++++to 0.4865
Heightened Def Con from 0.487 ++++++++++++++++++++to 0.487
Heightened Def Con from 0.4875 ++++++++++++++++++++to 0.4875
Heightened Def Con from 0.488 ++++++++++++++++++++to 0.488
Heightened Def Con from 0.4885 ++++++++++++++++++++to 0.4885
Heightened Def Con from 0.489 ++++++++++++++++++++to 0.489
Heightened Def Con from 0.4905 ++++++++++++++++++++to 0.4905
Heightened Def Con from 0.491 ++++++++++++++++++++to 0.491
Heightened Def Con from 0.4915 ++++++++++++++++++++to 0.4915
Heightened Def Con from 0.492 ++++++++++++++++++++to 0.492
Heightened Def Con from 0.4925 ++++++++++++++++++++to 0.4925
Heightened Def Con from 0.493 ++++++++++++++++++++to 0.493
Heightened Def Con from 0.4935 ++++++++++++++++++++to 0.4935
Heightened Def Con from 0.494 ++++++++++++++++++++to 0.494
Heightened Def Con from 0.4945 ++++++++++++++++++++to 0.4945
Heightened Def Con from 0.495 ++++++++++++++++++++to 0.495
Heightened Def Con from 0.496 ++++++++++++++++++++to 0.496
Heightened Def Con from 0.4965 ++++++++++++++++++++to 0.4965
Heightened Def Con from 0.497 ++++++++++++++++++++to 0.497
Heightened Def Con from 0.497033 ++++++++++++++++++++to 0.497033
Heightened Def Con from 0.4975 ++++++++++++++++++++to 0.4975
Heightened Def Con from 0.498 ++++++++++++++++++++to 0.498
Heightened Def Con from 0.4985 ++++++++++++++++++++to 0.4985
Heightened Def Con from 0.498933 ++++++++++++++++++++to 0.498933
Heightened Def Con from 0.499 ++++++++++++++++++++to 0.499
Heightened Def Con from 0.4995 ++++++++++++++++++++to 0.4995

Date: Thu Feb 24 21:34:19 2022
Total elapsed time: 33.911 seconds.

tnom = 27
temp = 27
method = modified trap
totiter = 14935178
traniter = 14935160
tranpoints = 2379966
accept = 1212667
rejected = 1275009
matrix size = 13
fillins = 0
solver = Normal
Matrix Compiler1: 388 bytes object code size  0.1/0.1/[0.1]
Matrix Compiler2: off  [0.1]/0.1/0.1

