Circuit: * C:\Users\USER\Desktop\ECE445_SeniorDesign\Simulation\buck-mppt-buck-boost.asc

WARNING: Node N002 is floating.

Direct Newton iteration failed to find .op point.  (Use ".option noopiter" to skip.)
Starting Gmin stepping
Gmin = 10
Gmin = 1.07374
Gmin = 0.115292
Gmin = 0.0123794
Gmin = 0.00132923
Gmin = 0.000142725
Gmin = 1.5325e-005
Gmin = 1.6455e-006
Gmin = 1.76685e-007
Gmin = 1.89714e-008
Gmin = 2.03704e-009
Gmin = 2.18725e-010
Gmin = 2.34854e-011
Gmin = 2.52173e-012
Gmin = 2.70769e-013
Gmin = 0
Gmin stepping succeeded in finding the operating point.

Heightened Def Con from 3.12511e-005 +++++++++++++++++++to 3.1252e-005
Heightened Def Con from 9.37511e-005 +++++++++++++++++++to 9.3752e-005
Heightened Def Con from 0.000156251 +++++++++++++++++++to 0.000156252
Heightened Def Con from 0.000218751 +++++++++++++++++++to 0.000218752
Heightened Def Con from 0.000281251 +++++++++++++++++++to 0.000281252
Heightened Def Con from 0.000343751 +++++++++++++++++++to 0.000343752
Heightened Def Con from 0.000406251 +++++++++++++++++++to 0.000406252
Heightened Def Con from 0.000468751 +++++++++++++++++++to 0.000468752
Heightened Def Con from 0.000531251 +++++++++++++++++++to 0.000531252
Heightened Def Con from 0.000593751 +++++++++++++++++++to 0.000593752
Heightened Def Con from 0.000656251 +++++++++++++++++++to 0.000656252
Heightened Def Con from 0.000718751 +++++++++++++++++++to 0.000718752
Heightened Def Con from 0.000781251 +++++++++++++++++++to 0.000781252
Heightened Def Con from 0.000843751 +++++++++++++++++++to 0.000843752
Heightened Def Con from 0.000906251 +++++++++++++++++++to 0.000906252
Heightened Def Con from 0.000968751 +++++++++++++++++++to 0.000968752
Heightened Def Con from 0.00103125 +++++++++++++++++++to 0.00103125
Heightened Def Con from 0.00109375 +++++++++++++++++++to 0.00109375
Heightened Def Con from 0.00115625 +++++++++++++++++++to 0.00115625
Heightened Def Con from 0.00121875 +++++++++++++++++++to 0.00121875
Heightened Def Con from 0.00128125 +++++++++++++++++++to 0.00128125
Heightened Def Con from 0.00134375 +++++++++++++++++++to 0.00134375
Heightened Def Con from 0.00140625 +++++++++++++++++++to 0.00140625
Heightened Def Con from 0.00146875 +++++++++++++++++++to 0.00146875
Heightened Def Con from 0.00153125 +++++++++++++++++++to 0.00153125
Heightened Def Con from 0.00159375 +++++++++++++++++++to 0.00159375
Heightened Def Con from 0.00165625 +++++++++++++++++++to 0.00165625
Heightened Def Con from 0.00171875 +++++++++++++++++++to 0.00171875
Heightened Def Con from 0.00178125 +++++++++++++++++++to 0.00178125
Heightened Def Con from 0.00184375 +++++++++++++++++++to 0.00184375
Heightened Def Con from 0.00190625 +++++++++++++++++++to 0.00190625
Heightened Def Con from 0.00196875 +++++++++++++++++++to 0.00196875
Heightened Def Con from 0.00203125 +++++++++++++++++++to 0.00203125
Heightened Def Con from 0.00209375 +++++++++++++++++++to 0.00209375
Heightened Def Con from 0.00215625 +++++++++++++++++++to 0.00215625
Heightened Def Con from 0.00221875 +++++++++++++++++++to 0.00221875
Heightened Def Con from 0.00228125 +++++++++++++++++++to 0.00228125
Heightened Def Con from 0.00234375 +++++++++++++++++++to 0.00234375
Heightened Def Con from 0.00240625 +++++++++++++++++++to 0.00240625
Heightened Def Con from 0.00246875 +++++++++++++++++++to 0.00246875
Heightened Def Con from 0.00253125 +++++++++++++++++++to 0.00253125
Heightened Def Con from 0.00259375 +++++++++++++++++++to 0.00259375
Heightened Def Con from 0.00265625 +++++++++++++++++++to 0.00265625
Heightened Def Con from 0.00271875 +++++++++++++++++++to 0.00271875
Heightened Def Con from 0.00278125 +++++++++++++++++++to 0.00278125
Heightened Def Con from 0.00284375 +++++++++++++++++++to 0.00284375
Heightened Def Con from 0.00290625 +++++++++++++++++++to 0.00290625
Heightened Def Con from 0.00296875 +++++++++++++++++++to 0.00296875
Heightened Def Con from 0.00303125 +++++++++++++++++++to 0.00303125
Heightened Def Con from 0.00309375 +++++++++++++++++++to 0.00309375
Heightened Def Con from 0.00315625 +++++++++++++++++++to 0.00315625
Heightened Def Con from 0.00321875 +++++++++++++++++++to 0.00321875
Heightened Def Con from 0.00328125 +++++++++++++++++++to 0.00328125
Heightened Def Con from 0.00334375 +++++++++++++++++++to 0.00334375
Heightened Def Con from 0.00340625 +++++++++++++++++++to 0.00340625
Heightened Def Con from 0.00346875 +++++++++++++++++++to 0.00346875
Heightened Def Con from 0.00353125 +++++++++++++++++++to 0.00353125
Heightened Def Con from 0.00359375 +++++++++++++++++++to 0.00359375
Heightened Def Con from 0.00365625 +++++++++++++++++++to 0.00365625
Heightened Def Con from 0.00371875 +++++++++++++++++++to 0.00371875
Heightened Def Con from 0.00378125 +++++++++++++++++++to 0.00378125
Heightened Def Con from 0.00384375 +++++++++++++++++++to 0.00384375
Heightened Def Con from 0.00390625 +++++++++++++++++++to 0.00390625
Heightened Def Con from 0.00396875 +++++++++++++++++++to 0.00396875
Heightened Def Con from 0.00403125 +++++++++++++++++++to 0.00403125
Heightened Def Con from 0.00409375 +++++++++++++++++++to 0.00409375
Heightened Def Con from 0.00415625 +++++++++++++++++++to 0.00415625
Heightened Def Con from 0.00421875 +++++++++++++++++++to 0.00421875
Heightened Def Con from 0.00428125 +++++++++++++++++++to 0.00428125
Heightened Def Con from 0.00434375 +++++++++++++++++++to 0.00434375
Heightened Def Con from 0.00440625 +++++++++++++++++++to 0.00440625
Heightened Def Con from 0.00446875 +++++++++++++++++++to 0.00446875
Heightened Def Con from 0.00453125 +++++++++++++++++++to 0.00453125
Heightened Def Con from 0.00459375 +++++++++++++++++++to 0.00459375
Heightened Def Con from 0.00465625 +++++++++++++++++++to 0.00465625
Heightened Def Con from 0.00471875 +++++++++++++++++++to 0.00471875
Heightened Def Con from 0.00478125 +++++++++++++++++++to 0.00478125
Heightened Def Con from 0.00484375 +++++++++++++++++++to 0.00484375
Heightened Def Con from 0.00490625 +++++++++++++++++++to 0.00490625
Heightened Def Con from 0.00496875 +++++++++++++++++++to 0.00496875
Heightened Def Con from 0.00503125 +++++++++++++++++++to 0.00503125
Heightened Def Con from 0.00509375 +++++++++++++++++++to 0.00509375
Heightened Def Con from 0.00515625 +++++++++++++++++++to 0.00515625
Heightened Def Con from 0.00521875 +++++++++++++++++++to 0.00521875
Heightened Def Con from 0.00528125 +++++++++++++++++++to 0.00528125
Heightened Def Con from 0.00534375 +++++++++++++++++++to 0.00534375
Heightened Def Con from 0.00540625 +++++++++++++++++++to 0.00540625
Heightened Def Con from 0.00546875 +++++++++++++++++++to 0.00546875
Heightened Def Con from 0.00553125 +++++++++++++++++++to 0.00553125
Heightened Def Con from 0.00559375 +++++++++++++++++++to 0.00559375
Heightened Def Con from 0.00565625 +++++++++++++++++++to 0.00565625
Heightened Def Con from 0.00571875 +++++++++++++++++++to 0.00571875
Heightened Def Con from 0.00578125 +++++++++++++++++++to 0.00578125
Heightened Def Con from 0.00584375 +++++++++++++++++++to 0.00584375
Heightened Def Con from 0.00590625 +++++++++++++++++++to 0.00590625
Heightened Def Con from 0.00596875 +++++++++++++++++++to 0.00596875
Heightened Def Con from 0.00603125 +++++++++++++++++++to 0.00603125
Heightened Def Con from 0.00609375 +++++++++++++++++++to 0.00609375
Heightened Def Con from 0.00615625 +++++++++++++++++++to 0.00615625
Heightened Def Con from 0.00621875 +++++++++++++++++++to 0.00621875
Heightened Def Con from 0.00628125 +++++++++++++++++++to 0.00628125
Heightened Def Con from 0.00634375 +++++++++++++++++++to 0.00634375
Heightened Def Con from 0.00640625 +++++++++++++++++++to 0.00640625
Heightened Def Con from 0.00646875 +++++++++++++++++++to 0.00646875
Heightened Def Con from 0.00653125 +++++++++++++++++++to 0.00653125
Heightened Def Con from 0.00659375 +++++++++++++++++++to 0.00659375
Heightened Def Con from 0.00665625 +++++++++++++++++++to 0.00665625
Heightened Def Con from 0.00671875 +++++++++++++++++++to 0.00671875
Heightened Def Con from 0.00678125 +++++++++++++++++++to 0.00678125
Heightened Def Con from 0.00684375 +++++++++++++++++++to 0.00684375
Heightened Def Con from 0.00690625 +++++++++++++++++++to 0.00690625
Heightened Def Con from 0.00696875 +++++++++++++++++++to 0.00696875
Heightened Def Con from 0.00703125 +++++++++++++++++++to 0.00703125
Heightened Def Con from 0.00709375 +++++++++++++++++++to 0.00709375
Heightened Def Con from 0.00715625 +++++++++++++++++++to 0.00715625
Heightened Def Con from 0.00721875 +++++++++++++++++++to 0.00721875
Heightened Def Con from 0.00728125 +++++++++++++++++++to 0.00728125
Heightened Def Con from 0.00734375 +++++++++++++++++++to 0.00734375
Heightened Def Con from 0.00740625 +++++++++++++++++++to 0.00740625
Heightened Def Con from 0.00746875 +++++++++++++++++++to 0.00746875
Heightened Def Con from 0.00753125 +++++++++++++++++++to 0.00753125
Heightened Def Con from 0.00759375 +++++++++++++++++++to 0.00759375
Heightened Def Con from 0.00765625 +++++++++++++++++++to 0.00765625
Heightened Def Con from 0.00771875 +++++++++++++++++++to 0.00771875
Heightened Def Con from 0.00778125 +++++++++++++++++++to 0.00778125
Heightened Def Con from 0.00784375 +++++++++++++++++++to 0.00784375
Heightened Def Con from 0.00790625 +++++++++++++++++++to 0.00790625
Heightened Def Con from 0.00796875 +++++++++++++++++++to 0.00796875
Heightened Def Con from 0.00803125 +++++++++++++++++++to 0.00803125
Heightened Def Con from 0.00809375 +++++++++++++++++++to 0.00809375
Heightened Def Con from 0.00815625 +++++++++++++++++++to 0.00815625
Heightened Def Con from 0.00821875 +++++++++++++++++++to 0.00821875
Heightened Def Con from 0.00828125 +++++++++++++++++++to 0.00828125
Heightened Def Con from 0.00834375 +++++++++++++++++++to 0.00834375
Heightened Def Con from 0.00840625 +++++++++++++++++++to 0.00840625
Heightened Def Con from 0.00846875 +++++++++++++++++++to 0.00846875
Heightened Def Con from 0.00853125 +++++++++++++++++++to 0.00853125
Heightened Def Con from 0.00859375 +++++++++++++++++++to 0.00859375
Heightened Def Con from 0.00865625 +++++++++++++++++++to 0.00865625
Heightened Def Con from 0.00871875 +++++++++++++++++++to 0.00871875
Heightened Def Con from 0.00878125 +++++++++++++++++++to 0.00878125
Heightened Def Con from 0.00884375 +++++++++++++++++++to 0.00884375
Heightened Def Con from 0.00890625 +++++++++++++++++++to 0.00890625
Heightened Def Con from 0.00896875 +++++++++++++++++++to 0.00896875
Heightened Def Con from 0.00903125 +++++++++++++++++++to 0.00903125
Heightened Def Con from 0.00909375 +++++++++++++++++++to 0.00909375
Heightened Def Con from 0.00915625 +++++++++++++++++++to 0.00915625
Heightened Def Con from 0.00921875 +++++++++++++++++++to 0.00921875
Heightened Def Con from 0.00928125 +++++++++++++++++++to 0.00928125
Heightened Def Con from 0.00934375 +++++++++++++++++++to 0.00934375
Heightened Def Con from 0.00940625 +++++++++++++++++++to 0.00940625
Heightened Def Con from 0.00946875 +++++++++++++++++++to 0.00946875
Heightened Def Con from 0.00953125 +++++++++++++++++++to 0.00953125
Heightened Def Con from 0.00959375 +++++++++++++++++++to 0.00959375
Heightened Def Con from 0.00965625 +++++++++++++++++++to 0.00965625
Heightened Def Con from 0.00971875 +++++++++++++++++++to 0.00971875
Heightened Def Con from 0.00978125 +++++++++++++++++++to 0.00978125
Heightened Def Con from 0.00984375 +++++++++++++++++++to 0.00984375
Heightened Def Con from 0.00990625 +++++++++++++++++++to 0.00990625
Heightened Def Con from 0.00996875 +++++++++++++++++++to 0.00996875
Heightened Def Con from 0.0100313 +++++++++++++++++++to 0.0100313
Heightened Def Con from 0.0100938 +++++++++++++++++++to 0.0100938
Heightened Def Con from 0.0101563 +++++++++++++++++++to 0.0101563
Heightened Def Con from 0.0102188 +++++++++++++++++++to 0.0102188
Heightened Def Con from 0.0102813 +++++++++++++++++++to 0.0102813
Heightened Def Con from 0.0103438 +++++++++++++++++++to 0.0103438
Heightened Def Con from 0.0104063 +++++++++++++++++++to 0.0104063
Heightened Def Con from 0.0104688 +++++++++++++++++++to 0.0104688
Heightened Def Con from 0.0105313 +++++++++++++++++++to 0.0105313
Heightened Def Con from 0.0105938 +++++++++++++++++++to 0.0105938
Heightened Def Con from 0.0106563 +++++++++++++++++++to 0.0106563
Heightened Def Con from 0.0107188 +++++++++++++++++++to 0.0107188
Heightened Def Con from 0.0107813 +++++++++++++++++++to 0.0107813
Heightened Def Con from 0.0108438 +++++++++++++++++++to 0.0108438
Heightened Def Con from 0.0109063 +++++++++++++++++++to 0.0109063
Heightened Def Con from 0.0109688 +++++++++++++++++++to 0.0109688
Heightened Def Con from 0.0110313 +++++++++++++++++++to 0.0110313
Heightened Def Con from 0.0110938 +++++++++++++++++++to 0.0110938
Heightened Def Con from 0.0111563 +++++++++++++++++++to 0.0111563
Heightened Def Con from 0.0112188 +++++++++++++++++++to 0.0112188
Heightened Def Con from 0.0112813 +++++++++++++++++++to 0.0112813
Heightened Def Con from 0.0113438 +++++++++++++++++++to 0.0113438
Heightened Def Con from 0.0114063 +++++++++++++++++++to 0.0114063
Heightened Def Con from 0.0114688 +++++++++++++++++++to 0.0114688
Heightened Def Con from 0.0115313 +++++++++++++++++++to 0.0115313
Heightened Def Con from 0.0115938 +++++++++++++++++++to 0.0115938
Heightened Def Con from 0.0116563 +++++++++++++++++++to 0.0116563
Heightened Def Con from 0.0117188 +++++++++++++++++++to 0.0117188
Heightened Def Con from 0.0117813 +++++++++++++++++++to 0.0117813
Heightened Def Con from 0.0118438 +++++++++++++++++++to 0.0118438
Heightened Def Con from 0.0119063 +++++++++++++++++++to 0.0119063
Heightened Def Con from 0.0119688 +++++++++++++++++++to 0.0119688
Heightened Def Con from 0.0120313 +++++++++++++++++++to 0.0120313
Heightened Def Con from 0.0120938 +++++++++++++++++++to 0.0120938
Heightened Def Con from 0.0121563 +++++++++++++++++++to 0.0121563
Heightened Def Con from 0.0122188 +++++++++++++++++++to 0.0122188
Heightened Def Con from 0.0122813 +++++++++++++++++++to 0.0122813
Heightened Def Con from 0.0123438 +++++++++++++++++++to 0.0123438
Heightened Def Con from 0.0124063 +++++++++++++++++++to 0.0124063
Heightened Def Con from 0.0124688 +++++++++++++++++++to 0.0124688
Heightened Def Con from 0.0125313 +++++++++++++++++++to 0.0125313
Heightened Def Con from 0.0125938 +++++++++++++++++++to 0.0125938
Heightened Def Con from 0.0126563 +++++++++++++++++++to 0.0126563
Heightened Def Con from 0.0127188 +++++++++++++++++++to 0.0127188
Heightened Def Con from 0.0127813 +++++++++++++++++++to 0.0127813
Heightened Def Con from 0.0128438 +++++++++++++++++++to 0.0128438
Heightened Def Con from 0.0129063 +++++++++++++++++++to 0.0129063
Heightened Def Con from 0.0129688 +++++++++++++++++++to 0.0129688
Heightened Def Con from 0.0130313 +++++++++++++++++++to 0.0130313
Heightened Def Con from 0.0130938 +++++++++++++++++++to 0.0130938
Heightened Def Con from 0.0131563 +++++++++++++++++++to 0.0131563
Heightened Def Con from 0.0132188 +++++++++++++++++++to 0.0132188
Heightened Def Con from 0.0132813 +++++++++++++++++++to 0.0132813
Heightened Def Con from 0.0133438 +++++++++++++++++++to 0.0133438
Heightened Def Con from 0.0134063 +++++++++++++++++++to 0.0134063
Heightened Def Con from 0.0134688 +++++++++++++++++++to 0.0134688
Heightened Def Con from 0.0135313 +++++++++++++++++++to 0.0135313
Heightened Def Con from 0.0135938 +++++++++++++++++++to 0.0135938
Heightened Def Con from 0.0136563 +++++++++++++++++++to 0.0136563
Heightened Def Con from 0.0137188 +++++++++++++++++++to 0.0137188
Heightened Def Con from 0.0137813 +++++++++++++++++++to 0.0137813
Heightened Def Con from 0.0138438 +++++++++++++++++++to 0.0138438
Heightened Def Con from 0.0139063 +++++++++++++++++++to 0.0139063
Heightened Def Con from 0.0139688 +++++++++++++++++++to 0.0139688
Heightened Def Con from 0.0140313 +++++++++++++++++++to 0.0140313
Heightened Def Con from 0.0140938 +++++++++++++++++++to 0.0140938
Heightened Def Con from 0.0141563 +++++++++++++++++++to 0.0141563
Heightened Def Con from 0.0142188 +++++++++++++++++++to 0.0142188
Heightened Def Con from 0.0142813 +++++++++++++++++++to 0.0142813
Heightened Def Con from 0.0143438 +++++++++++++++++++to 0.0143438
Heightened Def Con from 0.0144063 +++++++++++++++++++to 0.0144063
Heightened Def Con from 0.0144688 +++++++++++++++++++to 0.0144688
Heightened Def Con from 0.0145313 +++++++++++++++++++to 0.0145313
Heightened Def Con from 0.0145938 +++++++++++++++++++to 0.0145938
Heightened Def Con from 0.0146563 +++++++++++++++++++to 0.0146563
Heightened Def Con from 0.0147188 +++++++++++++++++++to 0.0147188
Heightened Def Con from 0.0147813 +++++++++++++++++++to 0.0147813
Heightened Def Con from 0.0148438 +++++++++++++++++++to 0.0148438
Heightened Def Con from 0.0149063 +++++++++++++++++++to 0.0149063
Heightened Def Con from 0.0149688 +++++++++++++++++++to 0.0149688
Heightened Def Con from 0.0150313 +++++++++++++++++++to 0.0150313
Heightened Def Con from 0.0150938 +++++++++++++++++++to 0.0150938
Heightened Def Con from 0.0151563 +++++++++++++++++++to 0.0151563
Heightened Def Con from 0.0152188 +++++++++++++++++++to 0.0152188
Heightened Def Con from 0.0152813 +++++++++++++++++++to 0.0152813
Heightened Def Con from 0.0153438 +++++++++++++++++++to 0.0153438
Heightened Def Con from 0.0154063 +++++++++++++++++++to 0.0154063
Heightened Def Con from 0.0154688 +++++++++++++++++++to 0.0154688
Heightened Def Con from 0.0155313 +++++++++++++++++++to 0.0155313
Heightened Def Con from 0.0155938 +++++++++++++++++++to 0.0155938
Heightened Def Con from 0.0156563 +++++++++++++++++++to 0.0156563
Heightened Def Con from 0.0157188 +++++++++++++++++++to 0.0157188
Heightened Def Con from 0.0157813 +++++++++++++++++++to 0.0157813
Heightened Def Con from 0.0158438 +++++++++++++++++++to 0.0158438
Heightened Def Con from 0.0159063 +++++++++++++++++++to 0.0159063
Heightened Def Con from 0.0159688 +++++++++++++++++++to 0.0159688
Heightened Def Con from 0.0160313 +++++++++++++++++++to 0.0160313
Heightened Def Con from 0.0160938 +++++++++++++++++++to 0.0160938
Heightened Def Con from 0.0161563 +++++++++++++++++++to 0.0161563
Heightened Def Con from 0.0162188 +++++++++++++++++++to 0.0162188
Heightened Def Con from 0.0162813 +++++++++++++++++++to 0.0162813
Heightened Def Con from 0.0163438 +++++++++++++++++++to 0.0163438
Heightened Def Con from 0.0164063 +++++++++++++++++++to 0.0164063
Heightened Def Con from 0.0164688 +++++++++++++++++++to 0.0164688
Heightened Def Con from 0.0165313 +++++++++++++++++++to 0.0165313
Heightened Def Con from 0.0165938 +++++++++++++++++++to 0.0165938
Heightened Def Con from 0.0166563 +++++++++++++++++++to 0.0166563
Heightened Def Con from 0.0167188 +++++++++++++++++++to 0.0167188
Heightened Def Con from 0.0167813 +++++++++++++++++++to 0.0167813
Heightened Def Con from 0.0168438 +++++++++++++++++++to 0.0168438
Heightened Def Con from 0.0169063 +++++++++++++++++++to 0.0169063
Heightened Def Con from 0.0169688 +++++++++++++++++++to 0.0169688
Heightened Def Con from 0.0170313 +++++++++++++++++++to 0.0170313
Heightened Def Con from 0.0170938 +++++++++++++++++++to 0.0170938
Heightened Def Con from 0.0171563 +++++++++++++++++++to 0.0171563
Heightened Def Con from 0.0172188 +++++++++++++++++++to 0.0172188
Heightened Def Con from 0.0172813 +++++++++++++++++++to 0.0172813
Heightened Def Con from 0.0173438 +++++++++++++++++++to 0.0173438
Heightened Def Con from 0.0174063 +++++++++++++++++++to 0.0174063
Heightened Def Con from 0.0174688 +++++++++++++++++++to 0.0174688
Heightened Def Con from 0.0175313 +++++++++++++++++++to 0.0175313
Heightened Def Con from 0.0175938 +++++++++++++++++++to 0.0175938
Heightened Def Con from 0.0176563 +++++++++++++++++++to 0.0176563
Heightened Def Con from 0.0177188 +++++++++++++++++++to 0.0177188
Heightened Def Con from 0.0177813 +++++++++++++++++++to 0.0177813
Heightened Def Con from 0.0178438 +++++++++++++++++++to 0.0178438
Heightened Def Con from 0.0179063 +++++++++++++++++++to 0.0179063
Heightened Def Con from 0.0179688 +++++++++++++++++++to 0.0179688
Heightened Def Con from 0.0180313 +++++++++++++++++++to 0.0180313
Heightened Def Con from 0.0180938 +++++++++++++++++++to 0.0180938
Heightened Def Con from 0.0181563 +++++++++++++++++++to 0.0181563
Heightened Def Con from 0.0182188 +++++++++++++++++++to 0.0182188
Heightened Def Con from 0.0182813 +++++++++++++++++++to 0.0182813
Heightened Def Con from 0.0183438 +++++++++++++++++++to 0.0183438
Heightened Def Con from 0.0184063 +++++++++++++++++++to 0.0184063
Heightened Def Con from 0.0184688 +++++++++++++++++++to 0.0184688
Heightened Def Con from 0.0185313 +++++++++++++++++++to 0.0185313
Heightened Def Con from 0.0185938 +++++++++++++++++++to 0.0185938
Heightened Def Con from 0.0186563 +++++++++++++++++++to 0.0186563
Heightened Def Con from 0.0187188 +++++++++++++++++++to 0.0187188
Heightened Def Con from 0.0187813 +++++++++++++++++++to 0.0187813
Heightened Def Con from 0.0188438 +++++++++++++++++++to 0.0188438
Heightened Def Con from 0.0189063 +++++++++++++++++++to 0.0189063
Heightened Def Con from 0.0189688 +++++++++++++++++++to 0.0189688
Heightened Def Con from 0.0190313 +++++++++++++++++++to 0.0190313
Heightened Def Con from 0.0190938 +++++++++++++++++++to 0.0190938
Heightened Def Con from 0.0191563 +++++++++++++++++++to 0.0191563
Heightened Def Con from 0.0192188 +++++++++++++++++++to 0.0192188
Heightened Def Con from 0.0192813 +++++++++++++++++++to 0.0192813
Heightened Def Con from 0.0193438 +++++++++++++++++++to 0.0193438
Heightened Def Con from 0.0194063 +++++++++++++++++++to 0.0194063
Heightened Def Con from 0.0194688 +++++++++++++++++++to 0.0194688
Heightened Def Con from 0.0195313 +++++++++++++++++++to 0.0195313
Heightened Def Con from 0.0195938 +++++++++++++++++++to 0.0195938
Heightened Def Con from 0.0196563 +++++++++++++++++++to 0.0196563
Heightened Def Con from 0.0197188 +++++++++++++++++++to 0.0197188
Heightened Def Con from 0.0197813 +++++++++++++++++++to 0.0197813
Heightened Def Con from 0.0198438 +++++++++++++++++++to 0.0198438
Heightened Def Con from 0.0199063 +++++++++++++++++++to 0.0199063
Heightened Def Con from 0.0199688 +++++++++++++++++++to 0.0199688
Heightened Def Con from 0.0200313 +++++++++++++++++++to 0.0200313
Heightened Def Con from 0.0200938 +++++++++++++++++++to 0.0200938
Heightened Def Con from 0.0201563 +++++++++++++++++++to 0.0201563
Heightened Def Con from 0.0202188 +++++++++++++++++++to 0.0202188
Heightened Def Con from 0.0202813 +++++++++++++++++++to 0.0202813
Heightened Def Con from 0.0203438 +++++++++++++++++++to 0.0203438
Heightened Def Con from 0.0204063 +++++++++++++++++++to 0.0204063
Heightened Def Con from 0.0204688 +++++++++++++++++++to 0.0204688
Heightened Def Con from 0.0205313 +++++++++++++++++++to 0.0205313
Heightened Def Con from 0.0205938 +++++++++++++++++++to 0.0205938
Heightened Def Con from 0.0206563 +++++++++++++++++++to 0.0206563
Heightened Def Con from 0.0207188 +++++++++++++++++++to 0.0207188
Heightened Def Con from 0.0207813 +++++++++++++++++++to 0.0207813
Heightened Def Con from 0.0208438 +++++++++++++++++++to 0.0208438
Heightened Def Con from 0.0209063 +++++++++++++++++++to 0.0209063
Heightened Def Con from 0.0209688 +++++++++++++++++++to 0.0209688
Heightened Def Con from 0.0210313 +++++++++++++++++++to 0.0210313
Heightened Def Con from 0.0210938 +++++++++++++++++++to 0.0210938
Heightened Def Con from 0.0211563 +++++++++++++++++++to 0.0211563
Heightened Def Con from 0.0212188 +++++++++++++++++++to 0.0212188
Heightened Def Con from 0.0212813 +++++++++++++++++++to 0.0212813
Heightened Def Con from 0.0213438 +++++++++++++++++++to 0.0213438
Heightened Def Con from 0.0214063 +++++++++++++++++++to 0.0214063
Heightened Def Con from 0.0214688 +++++++++++++++++++to 0.0214688
Heightened Def Con from 0.0215313 +++++++++++++++++++to 0.0215313
Heightened Def Con from 0.0215938 +++++++++++++++++++to 0.0215938
Heightened Def Con from 0.0216563 +++++++++++++++++++to 0.0216563
Heightened Def Con from 0.0217188 +++++++++++++++++++to 0.0217188
Heightened Def Con from 0.0217813 +++++++++++++++++++to 0.0217813
Heightened Def Con from 0.0218438 +++++++++++++++++++to 0.0218438
Heightened Def Con from 0.0219063 +++++++++++++++++++to 0.0219063
Heightened Def Con from 0.0219688 +++++++++++++++++++to 0.0219688
Heightened Def Con from 0.0220313 +++++++++++++++++++to 0.0220313
Heightened Def Con from 0.0220938 +++++++++++++++++++to 0.0220938
Heightened Def Con from 0.0221563 +++++++++++++++++++to 0.0221563
Heightened Def Con from 0.0222188 +++++++++++++++++++to 0.0222188
Heightened Def Con from 0.0222813 +++++++++++++++++++to 0.0222813
Heightened Def Con from 0.0223438 +++++++++++++++++++to 0.0223438
Heightened Def Con from 0.0224063 +++++++++++++++++++to 0.0224063
Heightened Def Con from 0.0224688 +++++++++++++++++++to 0.0224688
Heightened Def Con from 0.0225313 +++++++++++++++++++to 0.0225313
Heightened Def Con from 0.0225938 +++++++++++++++++++to 0.0225938
Heightened Def Con from 0.0226563 +++++++++++++++++++to 0.0226563
Heightened Def Con from 0.0227188 +++++++++++++++++++to 0.0227188
Heightened Def Con from 0.0227813 +++++++++++++++++++to 0.0227813
Heightened Def Con from 0.0228438 +++++++++++++++++++to 0.0228438
Heightened Def Con from 0.0229063 +++++++++++++++++++to 0.0229063
Heightened Def Con from 0.0229688 +++++++++++++++++++to 0.0229688
Heightened Def Con from 0.0230313 +++++++++++++++++++to 0.0230313
Heightened Def Con from 0.0230938 +++++++++++++++++++to 0.0230938
Heightened Def Con from 0.0231563 +++++++++++++++++++to 0.0231563
Heightened Def Con from 0.0232188 +++++++++++++++++++to 0.0232188
Heightened Def Con from 0.0232813 +++++++++++++++++++to 0.0232813
Heightened Def Con from 0.0233438 +++++++++++++++++++to 0.0233438
Heightened Def Con from 0.0234063 +++++++++++++++++++to 0.0234063
Heightened Def Con from 0.0234688 +++++++++++++++++++to 0.0234688
Heightened Def Con from 0.0235313 +++++++++++++++++++to 0.0235313
Heightened Def Con from 0.0235938 +++++++++++++++++++to 0.0235938
Heightened Def Con from 0.0236563 +++++++++++++++++++to 0.0236563
Heightened Def Con from 0.0237188 +++++++++++++++++++to 0.0237188
Heightened Def Con from 0.0237813 +++++++++++++++++++to 0.0237813
Heightened Def Con from 0.0238438 +++++++++++++++++++to 0.0238438
Heightened Def Con from 0.0239063 +++++++++++++++++++to 0.0239063
Heightened Def Con from 0.0239688 +++++++++++++++++++to 0.0239688
Heightened Def Con from 0.0240313 +++++++++++++++++++to 0.0240313
Heightened Def Con from 0.0240938 +++++++++++++++++++to 0.0240938
Heightened Def Con from 0.0241563 +++++++++++++++++++to 0.0241563
Heightened Def Con from 0.0242188 +++++++++++++++++++to 0.0242188
Heightened Def Con from 0.0242813 +++++++++++++++++++to 0.0242813
Heightened Def Con from 0.0243438 +++++++++++++++++++to 0.0243438
Heightened Def Con from 0.0244063 +++++++++++++++++++to 0.0244063
Heightened Def Con from 0.0244688 +++++++++++++++++++to 0.0244688
Heightened Def Con from 0.0245313 +++++++++++++++++++to 0.0245313
Heightened Def Con from 0.0245938 +++++++++++++++++++to 0.0245938
Heightened Def Con from 0.0246563 +++++++++++++++++++to 0.0246563
Heightened Def Con from 0.0247188 +++++++++++++++++++to 0.0247188
Heightened Def Con from 0.0247813 +++++++++++++++++++to 0.0247813
Heightened Def Con from 0.0248438 +++++++++++++++++++to 0.0248438
Heightened Def Con from 0.0249063 +++++++++++++++++++to 0.0249063
Heightened Def Con from 0.0249688 +++++++++++++++++++to 0.0249688
Heightened Def Con from 0.0250313 +++++++++++++++++++to 0.0250313
Heightened Def Con from 0.0250938 +++++++++++++++++++to 0.0250938
Heightened Def Con from 0.0251563 +++++++++++++++++++to 0.0251563
Heightened Def Con from 0.0252188 +++++++++++++++++++to 0.0252188
Heightened Def Con from 0.0252813 +++++++++++++++++++to 0.0252813
Heightened Def Con from 0.0253438 +++++++++++++++++++to 0.0253438
Heightened Def Con from 0.0254063 +++++++++++++++++++to 0.0254063
Heightened Def Con from 0.0254688 +++++++++++++++++++to 0.0254688
Heightened Def Con from 0.0255313 +++++++++++++++++++to 0.0255313
Heightened Def Con from 0.0255938 +++++++++++++++++++to 0.0255938
Heightened Def Con from 0.0256563 +++++++++++++++++++to 0.0256563
Heightened Def Con from 0.0257188 +++++++++++++++++++to 0.0257188
Heightened Def Con from 0.0257813 +++++++++++++++++++to 0.0257813
Heightened Def Con from 0.0258438 +++++++++++++++++++to 0.0258438
Heightened Def Con from 0.0259063 +++++++++++++++++++to 0.0259063
Heightened Def Con from 0.0259688 +++++++++++++++++++to 0.0259688
Heightened Def Con from 0.0260313 +++++++++++++++++++to 0.0260313
Heightened Def Con from 0.0260938 +++++++++++++++++++to 0.0260938
Heightened Def Con from 0.0261563 +++++++++++++++++++to 0.0261563
Heightened Def Con from 0.0262188 +++++++++++++++++++to 0.0262188
Heightened Def Con from 0.0262813 +++++++++++++++++++to 0.0262813
Heightened Def Con from 0.0263438 +++++++++++++++++++to 0.0263438
Heightened Def Con from 0.0264063 +++++++++++++++++++to 0.0264063
Heightened Def Con from 0.0264688 +++++++++++++++++++to 0.0264688
Heightened Def Con from 0.0265313 +++++++++++++++++++to 0.0265313
Heightened Def Con from 0.0265938 +++++++++++++++++++to 0.0265938
Heightened Def Con from 0.0266563 +++++++++++++++++++to 0.0266563
Heightened Def Con from 0.0267188 +++++++++++++++++++to 0.0267188
Heightened Def Con from 0.0267813 +++++++++++++++++++to 0.0267813
Heightened Def Con from 0.0268438 +++++++++++++++++++to 0.0268438
Heightened Def Con from 0.0269063 +++++++++++++++++++to 0.0269063
Heightened Def Con from 0.0269688 +++++++++++++++++++to 0.0269688
Heightened Def Con from 0.0270313 +++++++++++++++++++to 0.0270313
Heightened Def Con from 0.0270938 +++++++++++++++++++to 0.0270938
Heightened Def Con from 0.0271563 +++++++++++++++++++to 0.0271563
Heightened Def Con from 0.0272188 +++++++++++++++++++to 0.0272188
Heightened Def Con from 0.0272813 +++++++++++++++++++to 0.0272813
Heightened Def Con from 0.0273438 +++++++++++++++++++to 0.0273438
Heightened Def Con from 0.0274063 +++++++++++++++++++to 0.0274063
Heightened Def Con from 0.0274688 +++++++++++++++++++to 0.0274688
Heightened Def Con from 0.0275313 +++++++++++++++++++to 0.0275313
Heightened Def Con from 0.0275938 +++++++++++++++++++to 0.0275938
Heightened Def Con from 0.0276563 +++++++++++++++++++to 0.0276563
Heightened Def Con from 0.0277188 +++++++++++++++++++to 0.0277188
Heightened Def Con from 0.0277813 +++++++++++++++++++to 0.0277813
Heightened Def Con from 0.0278438 +++++++++++++++++++to 0.0278438
Heightened Def Con from 0.0279063 +++++++++++++++++++to 0.0279063
Heightened Def Con from 0.0279688 +++++++++++++++++++to 0.0279688
Heightened Def Con from 0.0280313 +++++++++++++++++++to 0.0280313
Heightened Def Con from 0.0280938 +++++++++++++++++++to 0.0280938
Heightened Def Con from 0.0281563 +++++++++++++++++++to 0.0281563
Heightened Def Con from 0.0282188 +++++++++++++++++++to 0.0282188
Heightened Def Con from 0.0282813 +++++++++++++++++++to 0.0282813
Heightened Def Con from 0.0283438 +++++++++++++++++++to 0.0283438
Heightened Def Con from 0.0284063 +++++++++++++++++++to 0.0284063
Heightened Def Con from 0.0284688 +++++++++++++++++++to 0.0284688
Heightened Def Con from 0.0285313 +++++++++++++++++++to 0.0285313
Heightened Def Con from 0.0285938 +++++++++++++++++++to 0.0285938
Heightened Def Con from 0.0286563 +++++++++++++++++++to 0.0286563
Heightened Def Con from 0.0287188 +++++++++++++++++++to 0.0287188
Heightened Def Con from 0.0287813 +++++++++++++++++++to 0.0287813
Heightened Def Con from 0.0288438 +++++++++++++++++++to 0.0288438
Heightened Def Con from 0.0289063 +++++++++++++++++++to 0.0289063
Heightened Def Con from 0.0289688 +++++++++++++++++++to 0.0289688
Heightened Def Con from 0.0290313 +++++++++++++++++++to 0.0290313
Heightened Def Con from 0.0290938 +++++++++++++++++++to 0.0290938
Heightened Def Con from 0.0291563 +++++++++++++++++++to 0.0291563
Heightened Def Con from 0.0292188 +++++++++++++++++++to 0.0292188
Heightened Def Con from 0.0292813 +++++++++++++++++++to 0.0292813
Heightened Def Con from 0.0293438 +++++++++++++++++++to 0.0293438
Heightened Def Con from 0.0294063 +++++++++++++++++++to 0.0294063
Heightened Def Con from 0.0294688 +++++++++++++++++++to 0.0294688
Heightened Def Con from 0.0295313 +++++++++++++++++++to 0.0295313
Heightened Def Con from 0.0295938 +++++++++++++++++++to 0.0295938
Heightened Def Con from 0.0296563 +++++++++++++++++++to 0.0296563
Heightened Def Con from 0.0297188 +++++++++++++++++++to 0.0297188
Heightened Def Con from 0.0297813 +++++++++++++++++++to 0.0297813
Heightened Def Con from 0.0298438 +++++++++++++++++++to 0.0298438
Heightened Def Con from 0.0299063 +++++++++++++++++++to 0.0299063
Heightened Def Con from 0.0299688 +++++++++++++++++++to 0.0299688
Heightened Def Con from 0.0300313 +++++++++++++++++++to 0.0300313
Heightened Def Con from 0.0300938 +++++++++++++++++++to 0.0300938
Heightened Def Con from 0.0301563 +++++++++++++++++++to 0.0301563
Heightened Def Con from 0.0302188 +++++++++++++++++++to 0.0302188
Heightened Def Con from 0.0302813 +++++++++++++++++++to 0.0302813
Heightened Def Con from 0.0303438 +++++++++++++++++++to 0.0303438
Heightened Def Con from 0.0304063 +++++++++++++++++++to 0.0304063
Heightened Def Con from 0.0304688 +++++++++++++++++++to 0.0304688
Heightened Def Con from 0.0305313 +++++++++++++++++++to 0.0305313
Heightened Def Con from 0.0305938 +++++++++++++++++++to 0.0305938
Heightened Def Con from 0.0306563 +++++++++++++++++++to 0.0306563
Heightened Def Con from 0.0307188 +++++++++++++++++++to 0.0307188
Heightened Def Con from 0.0307813 +++++++++++++++++++to 0.0307813
Heightened Def Con from 0.0308438 +++++++++++++++++++to 0.0308438
Heightened Def Con from 0.0309063 +++++++++++++++++++to 0.0309063
Heightened Def Con from 0.0309688 +++++++++++++++++++to 0.0309688
Heightened Def Con from 0.0310313 +++++++++++++++++++to 0.0310313
Heightened Def Con from 0.0310938 +++++++++++++++++++to 0.0310938
Heightened Def Con from 0.0311563 +++++++++++++++++++to 0.0311563
Heightened Def Con from 0.0312188 +++++++++++++++++++to 0.0312188
Heightened Def Con from 0.0312813 +++++++++++++++++++to 0.0312813
Heightened Def Con from 0.0313438 +++++++++++++++++++to 0.0313438
Heightened Def Con from 0.0314063 +++++++++++++++++++to 0.0314063
Heightened Def Con from 0.0314688 +++++++++++++++++++to 0.0314688
Heightened Def Con from 0.0315313 +++++++++++++++++++to 0.0315313
Heightened Def Con from 0.0315938 +++++++++++++++++++to 0.0315938
Heightened Def Con from 0.0316563 +++++++++++++++++++to 0.0316563
Heightened Def Con from 0.0317188 +++++++++++++++++++to 0.0317188
Heightened Def Con from 0.0317813 +++++++++++++++++++to 0.0317813
Heightened Def Con from 0.0318438 +++++++++++++++++++to 0.0318438
Heightened Def Con from 0.0319063 +++++++++++++++++++to 0.0319063
Heightened Def Con from 0.0319688 +++++++++++++++++++to 0.0319688
Heightened Def Con from 0.0320313 +++++++++++++++++++to 0.0320313
Heightened Def Con from 0.0320938 +++++++++++++++++++to 0.0320938
Heightened Def Con from 0.0321563 +++++++++++++++++++to 0.0321563
Heightened Def Con from 0.0322188 +++++++++++++++++++to 0.0322188
Heightened Def Con from 0.0322813 +++++++++++++++++++to 0.0322813
Heightened Def Con from 0.0323438 +++++++++++++++++++to 0.0323438
Heightened Def Con from 0.0324063 +++++++++++++++++++to 0.0324063
Heightened Def Con from 0.0324688 +++++++++++++++++++to 0.0324688
Heightened Def Con from 0.0325313 +++++++++++++++++++to 0.0325313
Heightened Def Con from 0.0325938 +++++++++++++++++++to 0.0325938
Heightened Def Con from 0.0326563 +++++++++++++++++++to 0.0326563
Heightened Def Con from 0.0327188 +++++++++++++++++++to 0.0327188
Heightened Def Con from 0.0327813 +++++++++++++++++++to 0.0327813
Heightened Def Con from 0.0328438 +++++++++++++++++++to 0.0328438
Heightened Def Con from 0.0329063 +++++++++++++++++++to 0.0329063
Heightened Def Con from 0.0329688 +++++++++++++++++++to 0.0329688
Heightened Def Con from 0.0330313 +++++++++++++++++++to 0.0330313
Heightened Def Con from 0.0330938 +++++++++++++++++++to 0.0330938
Heightened Def Con from 0.0331563 +++++++++++++++++++to 0.0331563
Heightened Def Con from 0.0332188 +++++++++++++++++++to 0.0332188
Heightened Def Con from 0.0332813 +++++++++++++++++++to 0.0332813
Heightened Def Con from 0.0333438 +++++++++++++++++++to 0.0333438
Heightened Def Con from 0.0334063 +++++++++++++++++++to 0.0334063
Heightened Def Con from 0.0334688 +++++++++++++++++++to 0.0334688
Heightened Def Con from 0.0335313 +++++++++++++++++++to 0.0335313
Heightened Def Con from 0.0335938 +++++++++++++++++++to 0.0335938
Heightened Def Con from 0.0336563 +++++++++++++++++++to 0.0336563
Heightened Def Con from 0.0337188 +++++++++++++++++++to 0.0337188
Heightened Def Con from 0.0337813 +++++++++++++++++++to 0.0337813
Heightened Def Con from 0.0338438 +++++++++++++++++++to 0.0338438
Heightened Def Con from 0.0339063 +++++++++++++++++++to 0.0339063
Heightened Def Con from 0.0339688 +++++++++++++++++++to 0.0339688
Heightened Def Con from 0.0340313 +++++++++++++++++++to 0.0340313
Heightened Def Con from 0.0340938 +++++++++++++++++++to 0.0340938
Heightened Def Con from 0.0341563 +++++++++++++++++++to 0.0341563
Heightened Def Con from 0.0342188 +++++++++++++++++++to 0.0342188
Heightened Def Con from 0.0342813 +++++++++++++++++++to 0.0342813
Heightened Def Con from 0.0343438 +++++++++++++++++++to 0.0343438
Heightened Def Con from 0.0344063 +++++++++++++++++++to 0.0344063
Heightened Def Con from 0.0344688 +++++++++++++++++++to 0.0344688
Heightened Def Con from 0.0345313 +++++++++++++++++++to 0.0345313
Heightened Def Con from 0.0345938 +++++++++++++++++++to 0.0345938
Heightened Def Con from 0.0346563 +++++++++++++++++++to 0.0346563
Heightened Def Con from 0.0347188 +++++++++++++++++++to 0.0347188
Heightened Def Con from 0.0347813 +++++++++++++++++++to 0.0347813
Heightened Def Con from 0.0348438 +++++++++++++++++++to 0.0348438
Heightened Def Con from 0.0349063 +++++++++++++++++++to 0.0349063
Heightened Def Con from 0.0349688 +++++++++++++++++++to 0.0349688
Heightened Def Con from 0.0350313 +++++++++++++++++++to 0.0350313
Heightened Def Con from 0.0350938 +++++++++++++++++++to 0.0350938
Heightened Def Con from 0.0351563 +++++++++++++++++++to 0.0351563
Heightened Def Con from 0.0352188 +++++++++++++++++++to 0.0352188
Heightened Def Con from 0.0352813 +++++++++++++++++++to 0.0352813
Heightened Def Con from 0.0353438 +++++++++++++++++++to 0.0353438
Heightened Def Con from 0.0354063 +++++++++++++++++++to 0.0354063
Heightened Def Con from 0.0354688 +++++++++++++++++++to 0.0354688
Heightened Def Con from 0.0355313 +++++++++++++++++++to 0.0355313
Heightened Def Con from 0.0355938 +++++++++++++++++++to 0.0355938
Heightened Def Con from 0.0356563 +++++++++++++++++++to 0.0356563
Heightened Def Con from 0.0357188 +++++++++++++++++++to 0.0357188
Heightened Def Con from 0.0357813 +++++++++++++++++++to 0.0357813
Heightened Def Con from 0.0358438 +++++++++++++++++++to 0.0358438
Heightened Def Con from 0.0359063 +++++++++++++++++++to 0.0359063
Heightened Def Con from 0.0359688 +++++++++++++++++++to 0.0359688
Heightened Def Con from 0.0360313 +++++++++++++++++++to 0.0360313
Heightened Def Con from 0.0360938 +++++++++++++++++++to 0.0360938
Heightened Def Con from 0.0361563 +++++++++++++++++++to 0.0361563
Heightened Def Con from 0.0362188 +++++++++++++++++++to 0.0362188
Heightened Def Con from 0.0362813 +++++++++++++++++++to 0.0362813
Heightened Def Con from 0.0363438 +++++++++++++++++++to 0.0363438
Heightened Def Con from 0.0364063 +++++++++++++++++++to 0.0364063
Heightened Def Con from 0.0364688 +++++++++++++++++++to 0.0364688
Heightened Def Con from 0.0365313 +++++++++++++++++++to 0.0365313
Heightened Def Con from 0.0365938 +++++++++++++++++++to 0.0365938
Heightened Def Con from 0.0366563 +++++++++++++++++++to 0.0366563
Heightened Def Con from 0.0367188 +++++++++++++++++++to 0.0367188
Heightened Def Con from 0.0367813 +++++++++++++++++++to 0.0367813
Heightened Def Con from 0.0368438 +++++++++++++++++++to 0.0368438
Heightened Def Con from 0.0369063 +++++++++++++++++++to 0.0369063
Heightened Def Con from 0.0369688 +++++++++++++++++++to 0.0369688
Heightened Def Con from 0.0370313 +++++++++++++++++++to 0.0370313
Heightened Def Con from 0.0370938 +++++++++++++++++++to 0.0370938
Heightened Def Con from 0.0371563 +++++++++++++++++++to 0.0371563
Heightened Def Con from 0.0372188 +++++++++++++++++++to 0.0372188
Heightened Def Con from 0.0372813 +++++++++++++++++++to 0.0372813
Heightened Def Con from 0.0373438 +++++++++++++++++++to 0.0373438
Heightened Def Con from 0.0374063 +++++++++++++++++++to 0.0374063
Heightened Def Con from 0.0374688 +++++++++++++++++++to 0.0374688
Heightened Def Con from 0.0375313 +++++++++++++++++++to 0.0375313
Heightened Def Con from 0.0375938 +++++++++++++++++++to 0.0375938
Heightened Def Con from 0.0376563 +++++++++++++++++++to 0.0376563
Heightened Def Con from 0.0377188 +++++++++++++++++++to 0.0377188
Heightened Def Con from 0.0377813 +++++++++++++++++++to 0.0377813
Heightened Def Con from 0.0378438 +++++++++++++++++++to 0.0378438
Heightened Def Con from 0.0379063 +++++++++++++++++++to 0.0379063
Heightened Def Con from 0.0379688 +++++++++++++++++++to 0.0379688
Heightened Def Con from 0.0380313 +++++++++++++++++++to 0.0380313
Heightened Def Con from 0.0380938 +++++++++++++++++++to 0.0380938
Heightened Def Con from 0.0381563 +++++++++++++++++++to 0.0381563
Heightened Def Con from 0.0382188 +++++++++++++++++++to 0.0382188
Heightened Def Con from 0.0382813 +++++++++++++++++++to 0.0382813
Heightened Def Con from 0.0383438 +++++++++++++++++++to 0.0383438
Heightened Def Con from 0.0384063 +++++++++++++++++++to 0.0384063
Heightened Def Con from 0.0384688 +++++++++++++++++++to 0.0384688
Heightened Def Con from 0.0385313 +++++++++++++++++++to 0.0385313
Heightened Def Con from 0.0385938 +++++++++++++++++++to 0.0385938
Heightened Def Con from 0.0386563 +++++++++++++++++++to 0.0386563
Heightened Def Con from 0.0387188 +++++++++++++++++++to 0.0387188
Heightened Def Con from 0.0387813 +++++++++++++++++++to 0.0387813
Heightened Def Con from 0.0388438 +++++++++++++++++++to 0.0388438
Heightened Def Con from 0.0389063 +++++++++++++++++++to 0.0389063
Heightened Def Con from 0.0389688 +++++++++++++++++++to 0.0389688
Heightened Def Con from 0.0390313 +++++++++++++++++++to 0.0390313
Heightened Def Con from 0.0390938 +++++++++++++++++++to 0.0390938
Heightened Def Con from 0.0391563 +++++++++++++++++++to 0.0391563
Heightened Def Con from 0.0392188 +++++++++++++++++++to 0.0392188
Heightened Def Con from 0.0392813 +++++++++++++++++++to 0.0392813
Heightened Def Con from 0.0393438 +++++++++++++++++++to 0.0393438
Heightened Def Con from 0.0394063 +++++++++++++++++++to 0.0394063
Heightened Def Con from 0.0394688 +++++++++++++++++++to 0.0394688
Heightened Def Con from 0.0395313 +++++++++++++++++++to 0.0395313
Heightened Def Con from 0.0395938 +++++++++++++++++++to 0.0395938
Heightened Def Con from 0.0396563 +++++++++++++++++++to 0.0396563
Heightened Def Con from 0.0397188 +++++++++++++++++++to 0.0397188
Heightened Def Con from 0.0397813 +++++++++++++++++++to 0.0397813
Heightened Def Con from 0.0398438 +++++++++++++++++++to 0.0398438
Heightened Def Con from 0.0399063 +++++++++++++++++++to 0.0399063
Heightened Def Con from 0.0399688 +++++++++++++++++++to 0.0399688
Heightened Def Con from 0.0400313 +++++++++++++++++++to 0.0400313
Heightened Def Con from 0.0400938 +++++++++++++++++++to 0.0400938
Heightened Def Con from 0.0401563 +++++++++++++++++++to 0.0401563
Heightened Def Con from 0.0402188 +++++++++++++++++++to 0.0402188
Heightened Def Con from 0.0402813 +++++++++++++++++++to 0.0402813
Heightened Def Con from 0.0403438 +++++++++++++++++++to 0.0403438
Heightened Def Con from 0.0404063 +++++++++++++++++++to 0.0404063
Heightened Def Con from 0.0404688 +++++++++++++++++++to 0.0404688
Heightened Def Con from 0.0405313 +++++++++++++++++++to 0.0405313
Heightened Def Con from 0.0405938 +++++++++++++++++++to 0.0405938
Heightened Def Con from 0.0406563 +++++++++++++++++++to 0.0406563
Heightened Def Con from 0.0407188 +++++++++++++++++++to 0.0407188
Heightened Def Con from 0.0407813 +++++++++++++++++++to 0.0407813
Heightened Def Con from 0.0408438 +++++++++++++++++++to 0.0408438
Heightened Def Con from 0.0409063 +++++++++++++++++++to 0.0409063
Heightened Def Con from 0.0409688 +++++++++++++++++++to 0.0409688
Heightened Def Con from 0.0410313 +++++++++++++++++++to 0.0410313
Heightened Def Con from 0.0410938 +++++++++++++++++++to 0.0410938
Heightened Def Con from 0.0411563 +++++++++++++++++++to 0.0411563
Heightened Def Con from 0.0412188 +++++++++++++++++++to 0.0412188
Heightened Def Con from 0.0412813 +++++++++++++++++++to 0.0412813
Heightened Def Con from 0.0413438 +++++++++++++++++++to 0.0413438
Heightened Def Con from 0.0414063 +++++++++++++++++++to 0.0414063
Heightened Def Con from 0.0414688 +++++++++++++++++++to 0.0414688
Heightened Def Con from 0.0415313 +++++++++++++++++++to 0.0415313
Heightened Def Con from 0.0415938 +++++++++++++++++++to 0.0415938
Heightened Def Con from 0.0416563 +++++++++++++++++++to 0.0416563
Heightened Def Con from 0.0417188 +++++++++++++++++++to 0.0417188
Heightened Def Con from 0.0417813 +++++++++++++++++++to 0.0417813
Heightened Def Con from 0.0418438 +++++++++++++++++++to 0.0418438
Heightened Def Con from 0.0419063 +++++++++++++++++++to 0.0419063
Heightened Def Con from 0.0419688 +++++++++++++++++++to 0.0419688
Heightened Def Con from 0.0420313 +++++++++++++++++++to 0.0420313
Heightened Def Con from 0.0420938 +++++++++++++++++++to 0.0420938
Heightened Def Con from 0.0421563 +++++++++++++++++++to 0.0421563
Heightened Def Con from 0.0422188 +++++++++++++++++++to 0.0422188
Heightened Def Con from 0.0422813 +++++++++++++++++++to 0.0422813
Heightened Def Con from 0.0423438 +++++++++++++++++++to 0.0423438
Heightened Def Con from 0.0424063 +++++++++++++++++++to 0.0424063
Heightened Def Con from 0.0424688 +++++++++++++++++++to 0.0424688
Heightened Def Con from 0.0425313 +++++++++++++++++++to 0.0425313
Heightened Def Con from 0.0425938 +++++++++++++++++++to 0.0425938
Heightened Def Con from 0.0426563 +++++++++++++++++++to 0.0426563
Heightened Def Con from 0.0427188 +++++++++++++++++++to 0.0427188
Heightened Def Con from 0.0427813 +++++++++++++++++++to 0.0427813
Heightened Def Con from 0.0428438 +++++++++++++++++++to 0.0428438
Heightened Def Con from 0.0429063 +++++++++++++++++++to 0.0429063
Heightened Def Con from 0.0429688 +++++++++++++++++++to 0.0429688
Heightened Def Con from 0.0430313 +++++++++++++++++++to 0.0430313
Heightened Def Con from 0.0430938 +++++++++++++++++++to 0.0430938
Heightened Def Con from 0.0431563 +++++++++++++++++++to 0.0431563
Heightened Def Con from 0.0432188 +++++++++++++++++++to 0.0432188
Heightened Def Con from 0.0432813 +++++++++++++++++++to 0.0432813
Heightened Def Con from 0.0433438 +++++++++++++++++++to 0.0433438
Heightened Def Con from 0.0434063 +++++++++++++++++++to 0.0434063
Heightened Def Con from 0.0434688 +++++++++++++++++++to 0.0434688
Heightened Def Con from 0.0435313 +++++++++++++++++++to 0.0435313
Heightened Def Con from 0.0435938 +++++++++++++++++++to 0.0435938
Heightened Def Con from 0.0436563 +++++++++++++++++++to 0.0436563
Heightened Def Con from 0.0437188 +++++++++++++++++++to 0.0437188
Heightened Def Con from 0.0437813 +++++++++++++++++++to 0.0437813
Heightened Def Con from 0.0438438 +++++++++++++++++++to 0.0438438
Heightened Def Con from 0.0439063 +++++++++++++++++++to 0.0439063
Heightened Def Con from 0.0439688 +++++++++++++++++++to 0.0439688
Heightened Def Con from 0.0440313 +++++++++++++++++++to 0.0440313
Heightened Def Con from 0.0440938 +++++++++++++++++++to 0.0440938
Heightened Def Con from 0.0441563 +++++++++++++++++++to 0.0441563
Heightened Def Con from 0.0442188 +++++++++++++++++++to 0.0442188
Heightened Def Con from 0.0442813 +++++++++++++++++++to 0.0442813
Heightened Def Con from 0.0443438 +++++++++++++++++++to 0.0443438
Heightened Def Con from 0.0444063 +++++++++++++++++++to 0.0444063
Heightened Def Con from 0.0444688 +++++++++++++++++++to 0.0444688
Heightened Def Con from 0.0445313 +++++++++++++++++++to 0.0445313
Heightened Def Con from 0.0445938 +++++++++++++++++++to 0.0445938
Heightened Def Con from 0.0446563 +++++++++++++++++++to 0.0446563
Heightened Def Con from 0.0447188 +++++++++++++++++++to 0.0447188
Heightened Def Con from 0.0447813 +++++++++++++++++++to 0.0447813
Heightened Def Con from 0.0448438 +++++++++++++++++++to 0.0448438
Heightened Def Con from 0.0449063 +++++++++++++++++++to 0.0449063
Heightened Def Con from 0.0449688 +++++++++++++++++++to 0.0449688
Heightened Def Con from 0.0450313 +++++++++++++++++++to 0.0450313
Heightened Def Con from 0.0450938 +++++++++++++++++++to 0.0450938
Heightened Def Con from 0.0451563 +++++++++++++++++++to 0.0451563
Heightened Def Con from 0.0452188 +++++++++++++++++++to 0.0452188
Heightened Def Con from 0.0452813 +++++++++++++++++++to 0.0452813
Heightened Def Con from 0.0453438 +++++++++++++++++++to 0.0453438
Heightened Def Con from 0.0454063 +++++++++++++++++++to 0.0454063
Heightened Def Con from 0.0454688 +++++++++++++++++++to 0.0454688
Heightened Def Con from 0.0455313 +++++++++++++++++++to 0.0455313
Heightened Def Con from 0.0455938 +++++++++++++++++++to 0.0455938
Heightened Def Con from 0.0456563 +++++++++++++++++++to 0.0456563
Heightened Def Con from 0.0457188 +++++++++++++++++++to 0.0457188
Heightened Def Con from 0.0457813 +++++++++++++++++++to 0.0457813
Heightened Def Con from 0.0458438 +++++++++++++++++++to 0.0458438
Heightened Def Con from 0.0459063 +++++++++++++++++++to 0.0459063
Heightened Def Con from 0.0459688 +++++++++++++++++++to 0.0459688
Heightened Def Con from 0.0460313 +++++++++++++++++++to 0.0460313
Heightened Def Con from 0.0460938 +++++++++++++++++++to 0.0460938
Heightened Def Con from 0.0461563 +++++++++++++++++++to 0.0461563
Heightened Def Con from 0.0462188 +++++++++++++++++++to 0.0462188
Heightened Def Con from 0.0462813 +++++++++++++++++++to 0.0462813
Heightened Def Con from 0.0463438 +++++++++++++++++++to 0.0463438
Heightened Def Con from 0.0464063 +++++++++++++++++++to 0.0464063
Heightened Def Con from 0.0464688 +++++++++++++++++++to 0.0464688
Heightened Def Con from 0.0465313 +++++++++++++++++++to 0.0465313
Heightened Def Con from 0.0465938 +++++++++++++++++++to 0.0465938
Heightened Def Con from 0.0466563 +++++++++++++++++++to 0.0466563
Heightened Def Con from 0.0467188 +++++++++++++++++++to 0.0467188
Heightened Def Con from 0.0467813 +++++++++++++++++++to 0.0467813
Heightened Def Con from 0.0468438 +++++++++++++++++++to 0.0468438
Heightened Def Con from 0.0469063 +++++++++++++++++++to 0.0469063
Heightened Def Con from 0.0469688 +++++++++++++++++++to 0.0469688
Heightened Def Con from 0.0470313 +++++++++++++++++++to 0.0470313
Heightened Def Con from 0.0470938 +++++++++++++++++++to 0.0470938
Heightened Def Con from 0.0471563 +++++++++++++++++++to 0.0471563
Heightened Def Con from 0.0472188 +++++++++++++++++++to 0.0472188
Heightened Def Con from 0.0472813 +++++++++++++++++++to 0.0472813
Heightened Def Con from 0.0473438 +++++++++++++++++++to 0.0473438
Heightened Def Con from 0.0474063 +++++++++++++++++++to 0.0474063
Heightened Def Con from 0.0474688 +++++++++++++++++++to 0.0474688
Heightened Def Con from 0.0475313 +++++++++++++++++++to 0.0475313
Heightened Def Con from 0.0475938 +++++++++++++++++++to 0.0475938
Heightened Def Con from 0.0476563 +++++++++++++++++++to 0.0476563
Heightened Def Con from 0.0477188 +++++++++++++++++++to 0.0477188
Heightened Def Con from 0.0477813 +++++++++++++++++++to 0.0477813
Heightened Def Con from 0.0478438 +++++++++++++++++++to 0.0478438
Heightened Def Con from 0.0479063 +++++++++++++++++++to 0.0479063
Heightened Def Con from 0.0479688 +++++++++++++++++++to 0.0479688
Heightened Def Con from 0.0480313 +++++++++++++++++++to 0.0480313
Heightened Def Con from 0.0480938 +++++++++++++++++++to 0.0480938
Heightened Def Con from 0.0481563 +++++++++++++++++++to 0.0481563
Heightened Def Con from 0.0482188 +++++++++++++++++++to 0.0482188
Heightened Def Con from 0.0482813 +++++++++++++++++++to 0.0482813
Heightened Def Con from 0.0483438 +++++++++++++++++++to 0.0483438
Heightened Def Con from 0.0484063 +++++++++++++++++++to 0.0484063
Heightened Def Con from 0.0484688 +++++++++++++++++++to 0.0484688
Heightened Def Con from 0.0485313 +++++++++++++++++++to 0.0485313
Heightened Def Con from 0.0485938 +++++++++++++++++++to 0.0485938
Heightened Def Con from 0.0486563 +++++++++++++++++++to 0.0486563
Heightened Def Con from 0.0487188 +++++++++++++++++++to 0.0487188
Heightened Def Con from 0.0487813 +++++++++++++++++++to 0.0487813
Heightened Def Con from 0.0488438 +++++++++++++++++++to 0.0488438
Heightened Def Con from 0.0489063 +++++++++++++++++++to 0.0489063
Heightened Def Con from 0.0489688 +++++++++++++++++++to 0.0489688
Heightened Def Con from 0.0490313 +++++++++++++++++++to 0.0490313
Heightened Def Con from 0.0490938 +++++++++++++++++++to 0.0490938
Heightened Def Con from 0.0491563 +++++++++++++++++++to 0.0491563
Heightened Def Con from 0.0492188 +++++++++++++++++++to 0.0492188
Heightened Def Con from 0.0492813 +++++++++++++++++++to 0.0492813
Heightened Def Con from 0.0493438 +++++++++++++++++++to 0.0493438
Heightened Def Con from 0.0494063 +++++++++++++++++++to 0.0494063
Heightened Def Con from 0.0494688 +++++++++++++++++++to 0.0494688
Heightened Def Con from 0.0495313 +++++++++++++++++++to 0.0495313
Heightened Def Con from 0.0495938 +++++++++++++++++++to 0.0495938
Heightened Def Con from 0.0496563 +++++++++++++++++++to 0.0496563
Heightened Def Con from 0.0497188 +++++++++++++++++++to 0.0497188
Heightened Def Con from 0.0497813 +++++++++++++++++++to 0.0497813
Heightened Def Con from 0.0498438 +++++++++++++++++++to 0.0498438
Heightened Def Con from 0.0499063 +++++++++++++++++++to 0.0499063
Heightened Def Con from 0.0499688 +++++++++++++++++++to 0.0499688
Heightened Def Con from 0.0500313 +++++++++++++++++++to 0.0500313
Heightened Def Con from 0.0500938 +++++++++++++++++++to 0.0500938
Heightened Def Con from 0.0501563 +++++++++++++++++++to 0.0501563
Heightened Def Con from 0.0502188 +++++++++++++++++++to 0.0502188
Heightened Def Con from 0.0502813 +++++++++++++++++++to 0.0502813
Heightened Def Con from 0.0503438 +++++++++++++++++++to 0.0503438
Heightened Def Con from 0.0504063 +++++++++++++++++++to 0.0504063
Heightened Def Con from 0.0504688 +++++++++++++++++++to 0.0504688
Heightened Def Con from 0.0505313 +++++++++++++++++++to 0.0505313
Heightened Def Con from 0.0505938 +++++++++++++++++++to 0.0505938
Heightened Def Con from 0.0506563 +++++++++++++++++++to 0.0506563
Heightened Def Con from 0.0507188 +++++++++++++++++++to 0.0507188
Heightened Def Con from 0.0507813 +++++++++++++++++++to 0.0507813
Heightened Def Con from 0.0508438 +++++++++++++++++++to 0.0508438
Heightened Def Con from 0.0509063 +++++++++++++++++++to 0.0509063
Heightened Def Con from 0.0509688 +++++++++++++++++++to 0.0509688
Heightened Def Con from 0.0510313 +++++++++++++++++++to 0.0510313
Heightened Def Con from 0.0510938 +++++++++++++++++++to 0.0510938
Heightened Def Con from 0.0511563 +++++++++++++++++++to 0.0511563
Heightened Def Con from 0.0512188 +++++++++++++++++++to 0.0512188
Heightened Def Con from 0.0512813 +++++++++++++++++++to 0.0512813
Heightened Def Con from 0.0513438 +++++++++++++++++++to 0.0513438
Heightened Def Con from 0.0514063 +++++++++++++++++++to 0.0514063
Heightened Def Con from 0.0514688 +++++++++++++++++++to 0.0514688
Heightened Def Con from 0.0515313 +++++++++++++++++++to 0.0515313
Heightened Def Con from 0.0515938 +++++++++++++++++++to 0.0515938
Heightened Def Con from 0.0516563 +++++++++++++++++++to 0.0516563
Heightened Def Con from 0.0517188 +++++++++++++++++++to 0.0517188
Heightened Def Con from 0.0517813 +++++++++++++++++++to 0.0517813
Heightened Def Con from 0.0518438 +++++++++++++++++++to 0.0518438
Heightened Def Con from 0.0519063 +++++++++++++++++++to 0.0519063
Heightened Def Con from 0.0519688 +++++++++++++++++++to 0.0519688
Heightened Def Con from 0.0520313 +++++++++++++++++++to 0.0520313
Heightened Def Con from 0.0520938 +++++++++++++++++++to 0.0520938
Heightened Def Con from 0.0521563 +++++++++++++++++++to 0.0521563
Heightened Def Con from 0.0522188 +++++++++++++++++++to 0.0522188
Heightened Def Con from 0.0522813 +++++++++++++++++++to 0.0522813
Heightened Def Con from 0.0523438 +++++++++++++++++++to 0.0523438
Heightened Def Con from 0.0524063 +++++++++++++++++++to 0.0524063
Heightened Def Con from 0.0524688 +++++++++++++++++++to 0.0524688
Heightened Def Con from 0.0525313 +++++++++++++++++++to 0.0525313
Heightened Def Con from 0.0525938 +++++++++++++++++++to 0.0525938
Heightened Def Con from 0.0526563 +++++++++++++++++++to 0.0526563
Heightened Def Con from 0.0527188 +++++++++++++++++++to 0.0527188
Heightened Def Con from 0.0527813 +++++++++++++++++++to 0.0527813
Heightened Def Con from 0.0528438 +++++++++++++++++++to 0.0528438
Heightened Def Con from 0.0529063 +++++++++++++++++++to 0.0529063
Heightened Def Con from 0.0529688 +++++++++++++++++++to 0.0529688
Heightened Def Con from 0.0530313 +++++++++++++++++++to 0.0530313
Heightened Def Con from 0.0530938 +++++++++++++++++++to 0.0530938
Heightened Def Con from 0.0531563 +++++++++++++++++++to 0.0531563
Heightened Def Con from 0.0532188 +++++++++++++++++++to 0.0532188
Heightened Def Con from 0.0532813 +++++++++++++++++++to 0.0532813
Heightened Def Con from 0.0533438 +++++++++++++++++++to 0.0533438
Heightened Def Con from 0.0534063 +++++++++++++++++++to 0.0534063
Heightened Def Con from 0.0534688 +++++++++++++++++++to 0.0534688
Heightened Def Con from 0.0535313 +++++++++++++++++++to 0.0535313
Heightened Def Con from 0.0535938 +++++++++++++++++++to 0.0535938
Heightened Def Con from 0.0536563 +++++++++++++++++++to 0.0536563
Heightened Def Con from 0.0537188 +++++++++++++++++++to 0.0537188
Heightened Def Con from 0.0537813 +++++++++++++++++++to 0.0537813
Heightened Def Con from 0.0538438 +++++++++++++++++++to 0.0538438
Heightened Def Con from 0.0539063 +++++++++++++++++++to 0.0539063
Heightened Def Con from 0.0539688 +++++++++++++++++++to 0.0539688
Heightened Def Con from 0.0540313 +++++++++++++++++++to 0.0540313
Heightened Def Con from 0.0540938 +++++++++++++++++++to 0.0540938
Heightened Def Con from 0.0541563 +++++++++++++++++++to 0.0541563
Heightened Def Con from 0.0542188 +++++++++++++++++++to 0.0542188
Heightened Def Con from 0.0542813 +++++++++++++++++++to 0.0542813
Heightened Def Con from 0.0543438 +++++++++++++++++++to 0.0543438
Heightened Def Con from 0.0544063 +++++++++++++++++++to 0.0544063
Heightened Def Con from 0.0544688 +++++++++++++++++++to 0.0544688
Heightened Def Con from 0.0545313 +++++++++++++++++++to 0.0545313
Heightened Def Con from 0.0545938 +++++++++++++++++++to 0.0545938
Heightened Def Con from 0.0546563 +++++++++++++++++++to 0.0546563
Heightened Def Con from 0.0547188 +++++++++++++++++++to 0.0547188
Heightened Def Con from 0.0547813 +++++++++++++++++++to 0.0547813
Heightened Def Con from 0.0548438 +++++++++++++++++++to 0.0548438
Heightened Def Con from 0.0549063 +++++++++++++++++++to 0.0549063
Heightened Def Con from 0.0549688 +++++++++++++++++++to 0.0549688
Heightened Def Con from 0.0550313 +++++++++++++++++++to 0.0550313
Heightened Def Con from 0.0550938 +++++++++++++++++++to 0.0550938
Heightened Def Con from 0.0551563 +++++++++++++++++++to 0.0551563
Heightened Def Con from 0.0552188 +++++++++++++++++++to 0.0552188
Heightened Def Con from 0.0552813 +++++++++++++++++++to 0.0552813
Heightened Def Con from 0.0553438 +++++++++++++++++++to 0.0553438
Heightened Def Con from 0.0554063 +++++++++++++++++++to 0.0554063
Heightened Def Con from 0.0554688 +++++++++++++++++++to 0.0554688
Heightened Def Con from 0.0555313 +++++++++++++++++++to 0.0555313
Heightened Def Con from 0.0555938 +++++++++++++++++++to 0.0555938
Heightened Def Con from 0.0556563 +++++++++++++++++++to 0.0556563
Heightened Def Con from 0.0557188 +++++++++++++++++++to 0.0557188
Heightened Def Con from 0.0557813 +++++++++++++++++++to 0.0557813
Heightened Def Con from 0.0558438 +++++++++++++++++++to 0.0558438
Heightened Def Con from 0.0559063 +++++++++++++++++++to 0.0559063
Heightened Def Con from 0.0559688 +++++++++++++++++++to 0.0559688
Heightened Def Con from 0.0560313 +++++++++++++++++++to 0.0560313
Heightened Def Con from 0.0560938 +++++++++++++++++++to 0.0560938
Heightened Def Con from 0.0561563 +++++++++++++++++++to 0.0561563
Heightened Def Con from 0.0562188 +++++++++++++++++++to 0.0562188
Heightened Def Con from 0.0562813 +++++++++++++++++++to 0.0562813
Heightened Def Con from 0.0563438 +++++++++++++++++++to 0.0563438
Heightened Def Con from 0.0564063 +++++++++++++++++++to 0.0564063
Heightened Def Con from 0.0564688 +++++++++++++++++++to 0.0564688
Heightened Def Con from 0.0565313 +++++++++++++++++++to 0.0565313
Heightened Def Con from 0.0565938 +++++++++++++++++++to 0.0565938
Heightened Def Con from 0.0566563 +++++++++++++++++++to 0.0566563
Heightened Def Con from 0.0567188 +++++++++++++++++++to 0.0567188
Heightened Def Con from 0.0567813 +++++++++++++++++++to 0.0567813
Heightened Def Con from 0.0568438 +++++++++++++++++++to 0.0568438
Heightened Def Con from 0.0569063 +++++++++++++++++++to 0.0569063
Heightened Def Con from 0.0569688 +++++++++++++++++++to 0.0569688
Heightened Def Con from 0.0570313 +++++++++++++++++++to 0.0570313
Heightened Def Con from 0.0570938 +++++++++++++++++++to 0.0570938
Heightened Def Con from 0.0571563 +++++++++++++++++++to 0.0571563
Heightened Def Con from 0.0572188 +++++++++++++++++++to 0.0572188
Heightened Def Con from 0.0572813 +++++++++++++++++++to 0.0572813
Heightened Def Con from 0.0573438 +++++++++++++++++++to 0.0573438
Heightened Def Con from 0.0574063 +++++++++++++++++++to 0.0574063
Heightened Def Con from 0.0574688 +++++++++++++++++++to 0.0574688
Heightened Def Con from 0.0575313 +++++++++++++++++++to 0.0575313
Heightened Def Con from 0.0575938 +++++++++++++++++++to 0.0575938
Heightened Def Con from 0.0576563 +++++++++++++++++++to 0.0576563
Heightened Def Con from 0.0577188 +++++++++++++++++++to 0.0577188
Heightened Def Con from 0.0577813 +++++++++++++++++++to 0.0577813
Heightened Def Con from 0.0578438 +++++++++++++++++++to 0.0578438
Heightened Def Con from 0.0579063 +++++++++++++++++++to 0.0579063
Heightened Def Con from 0.0579688 +++++++++++++++++++to 0.0579688
Heightened Def Con from 0.0580313 +++++++++++++++++++to 0.0580313
Heightened Def Con from 0.0580938 +++++++++++++++++++to 0.0580938
Heightened Def Con from 0.0581563 +++++++++++++++++++to 0.0581563
Heightened Def Con from 0.0582188 +++++++++++++++++++to 0.0582188
Heightened Def Con from 0.0582813 +++++++++++++++++++to 0.0582813
Heightened Def Con from 0.0583438 +++++++++++++++++++to 0.0583438
Heightened Def Con from 0.0584063 +++++++++++++++++++to 0.0584063
Heightened Def Con from 0.0584688 +++++++++++++++++++to 0.0584688
Heightened Def Con from 0.0585313 +++++++++++++++++++to 0.0585313
Heightened Def Con from 0.0585938 +++++++++++++++++++to 0.0585938
Heightened Def Con from 0.0586563 +++++++++++++++++++to 0.0586563
Heightened Def Con from 0.0587188 +++++++++++++++++++to 0.0587188
Heightened Def Con from 0.0587813 +++++++++++++++++++to 0.0587813
Heightened Def Con from 0.0588438 +++++++++++++++++++to 0.0588438
Heightened Def Con from 0.0589063 +++++++++++++++++++to 0.0589063
Heightened Def Con from 0.0589688 +++++++++++++++++++to 0.0589688
Heightened Def Con from 0.0590313 +++++++++++++++++++to 0.0590313
Heightened Def Con from 0.0590938 +++++++++++++++++++to 0.0590938
Heightened Def Con from 0.0591563 +++++++++++++++++++to 0.0591563
Heightened Def Con from 0.0592188 +++++++++++++++++++to 0.0592188
Heightened Def Con from 0.0592813 +++++++++++++++++++to 0.0592813
Heightened Def Con from 0.0593438 +++++++++++++++++++to 0.0593438
Heightened Def Con from 0.0594063 +++++++++++++++++++to 0.0594063
Heightened Def Con from 0.0594688 +++++++++++++++++++to 0.0594688
Heightened Def Con from 0.0595313 +++++++++++++++++++to 0.0595313
Heightened Def Con from 0.0595938 +++++++++++++++++++to 0.0595938
Heightened Def Con from 0.0596563 +++++++++++++++++++to 0.0596563
Heightened Def Con from 0.0597188 +++++++++++++++++++to 0.0597188
Heightened Def Con from 0.0597813 +++++++++++++++++++to 0.0597813
Heightened Def Con from 0.0598438 +++++++++++++++++++to 0.0598438
Heightened Def Con from 0.0599063 +++++++++++++++++++to 0.0599063
Heightened Def Con from 0.0599688 +++++++++++++++++++to 0.0599688
Heightened Def Con from 0.0600313 +++++++++++++++++++to 0.0600313
Heightened Def Con from 0.0600938 +++++++++++++++++++to 0.0600938
Heightened Def Con from 0.0601563 +++++++++++++++++++to 0.0601563
Heightened Def Con from 0.0602188 +++++++++++++++++++to 0.0602188
Heightened Def Con from 0.0602813 +++++++++++++++++++to 0.0602813
Heightened Def Con from 0.0603438 +++++++++++++++++++to 0.0603438
Heightened Def Con from 0.0604063 +++++++++++++++++++to 0.0604063
Heightened Def Con from 0.0604688 +++++++++++++++++++to 0.0604688
Heightened Def Con from 0.0605313 +++++++++++++++++++to 0.0605313
Heightened Def Con from 0.0605938 +++++++++++++++++++to 0.0605938
Heightened Def Con from 0.0606563 +++++++++++++++++++to 0.0606563
Heightened Def Con from 0.0607188 +++++++++++++++++++to 0.0607188
Heightened Def Con from 0.0607813 +++++++++++++++++++to 0.0607813
Heightened Def Con from 0.0608438 +++++++++++++++++++to 0.0608438
Heightened Def Con from 0.0609063 +++++++++++++++++++to 0.0609063
Heightened Def Con from 0.0609688 +++++++++++++++++++to 0.0609688
Heightened Def Con from 0.0610313 +++++++++++++++++++to 0.0610313
Heightened Def Con from 0.0610938 +++++++++++++++++++to 0.0610938
Heightened Def Con from 0.0611563 +++++++++++++++++++to 0.0611563
Heightened Def Con from 0.0612188 +++++++++++++++++++to 0.0612188
Heightened Def Con from 0.0612813 +++++++++++++++++++to 0.0612813
Heightened Def Con from 0.0613438 +++++++++++++++++++to 0.0613438
Heightened Def Con from 0.0614063 +++++++++++++++++++to 0.0614063
Heightened Def Con from 0.0614688 +++++++++++++++++++to 0.0614688
Heightened Def Con from 0.0615313 +++++++++++++++++++to 0.0615313
Heightened Def Con from 0.0615938 +++++++++++++++++++to 0.0615938
Heightened Def Con from 0.0616563 +++++++++++++++++++to 0.0616563
Heightened Def Con from 0.0617188 +++++++++++++++++++to 0.0617188
Heightened Def Con from 0.0617813 +++++++++++++++++++to 0.0617813
Heightened Def Con from 0.0618438 +++++++++++++++++++to 0.0618438
Heightened Def Con from 0.0619063 +++++++++++++++++++to 0.0619063
Heightened Def Con from 0.0619688 +++++++++++++++++++to 0.0619688
Heightened Def Con from 0.0620313 +++++++++++++++++++to 0.0620313
Heightened Def Con from 0.0620938 +++++++++++++++++++to 0.0620938
Heightened Def Con from 0.0621563 +++++++++++++++++++to 0.0621563
Heightened Def Con from 0.0622188 +++++++++++++++++++to 0.0622188
Heightened Def Con from 0.0622813 +++++++++++++++++++to 0.0622813
Heightened Def Con from 0.0623438 +++++++++++++++++++to 0.0623438
Heightened Def Con from 0.0624063 +++++++++++++++++++to 0.0624063
Heightened Def Con from 0.0624688 +++++++++++++++++++to 0.0624688
Heightened Def Con from 0.0625313 +++++++++++++++++++to 0.0625313
Heightened Def Con from 0.0625938 +++++++++++++++++++to 0.0625938
Heightened Def Con from 0.0626563 +++++++++++++++++++to 0.0626563
Heightened Def Con from 0.0627188 +++++++++++++++++++to 0.0627188
Heightened Def Con from 0.0627813 +++++++++++++++++++to 0.0627813
Heightened Def Con from 0.0628438 +++++++++++++++++++to 0.0628438
Heightened Def Con from 0.0629063 +++++++++++++++++++to 0.0629063
Heightened Def Con from 0.0629688 +++++++++++++++++++to 0.0629688
Heightened Def Con from 0.0630313 +++++++++++++++++++to 0.0630313
Heightened Def Con from 0.0630938 +++++++++++++++++++to 0.0630938
Heightened Def Con from 0.0631563 +++++++++++++++++++to 0.0631563
Heightened Def Con from 0.0632188 +++++++++++++++++++to 0.0632188
Heightened Def Con from 0.0632813 +++++++++++++++++++to 0.0632813
Heightened Def Con from 0.0633438 +++++++++++++++++++to 0.0633438
Heightened Def Con from 0.0634063 +++++++++++++++++++to 0.0634063
Heightened Def Con from 0.0634688 +++++++++++++++++++to 0.0634688
Heightened Def Con from 0.0635313 +++++++++++++++++++to 0.0635313
Heightened Def Con from 0.0635938 +++++++++++++++++++to 0.0635938
Heightened Def Con from 0.0636563 +++++++++++++++++++to 0.0636563
Heightened Def Con from 0.0637188 +++++++++++++++++++to 0.0637188
Heightened Def Con from 0.0637813 +++++++++++++++++++to 0.0637813
Heightened Def Con from 0.0638438 +++++++++++++++++++to 0.0638438
Heightened Def Con from 0.0639063 +++++++++++++++++++to 0.0639063
Heightened Def Con from 0.0639688 +++++++++++++++++++to 0.0639688
Heightened Def Con from 0.0640313 +++++++++++++++++++to 0.0640313
Heightened Def Con from 0.0640938 +++++++++++++++++++to 0.0640938
Heightened Def Con from 0.0641563 +++++++++++++++++++to 0.0641563
Heightened Def Con from 0.0642188 +++++++++++++++++++to 0.0642188
Heightened Def Con from 0.0642813 +++++++++++++++++++to 0.0642813
Heightened Def Con from 0.0643438 +++++++++++++++++++to 0.0643438
Heightened Def Con from 0.0644063 +++++++++++++++++++to 0.0644063
Heightened Def Con from 0.0644688 +++++++++++++++++++to 0.0644688
Heightened Def Con from 0.0645313 +++++++++++++++++++to 0.0645313
Heightened Def Con from 0.0645938 +++++++++++++++++++to 0.0645938
Heightened Def Con from 0.0646563 +++++++++++++++++++to 0.0646563
Heightened Def Con from 0.0647188 +++++++++++++++++++to 0.0647188
Heightened Def Con from 0.0647813 +++++++++++++++++++to 0.0647813
Heightened Def Con from 0.0648438 +++++++++++++++++++to 0.0648438
Heightened Def Con from 0.0649063 +++++++++++++++++++to 0.0649063
Heightened Def Con from 0.0649688 +++++++++++++++++++to 0.0649688
Heightened Def Con from 0.0650313 +++++++++++++++++++to 0.0650313
Heightened Def Con from 0.0650938 +++++++++++++++++++to 0.0650938
Heightened Def Con from 0.0651563 +++++++++++++++++++to 0.0651563
Heightened Def Con from 0.0652188 +++++++++++++++++++to 0.0652188
Heightened Def Con from 0.0652813 +++++++++++++++++++to 0.0652813
Heightened Def Con from 0.0653438 +++++++++++++++++++to 0.0653438
Heightened Def Con from 0.0654063 +++++++++++++++++++to 0.0654063
Heightened Def Con from 0.0654688 +++++++++++++++++++to 0.0654688
Heightened Def Con from 0.0655313 +++++++++++++++++++to 0.0655313
Heightened Def Con from 0.0655938 +++++++++++++++++++to 0.0655938
Heightened Def Con from 0.0656563 +++++++++++++++++++to 0.0656563
Heightened Def Con from 0.0657188 +++++++++++++++++++to 0.0657188
Heightened Def Con from 0.0657813 +++++++++++++++++++to 0.0657813
Heightened Def Con from 0.0658438 +++++++++++++++++++to 0.0658438
Heightened Def Con from 0.0659063 +++++++++++++++++++to 0.0659063
Heightened Def Con from 0.0659688 +++++++++++++++++++to 0.0659688
Heightened Def Con from 0.0660313 +++++++++++++++++++to 0.0660313
Heightened Def Con from 0.0660938 +++++++++++++++++++to 0.0660938
Heightened Def Con from 0.0661563 +++++++++++++++++++to 0.0661563
Heightened Def Con from 0.0662188 +++++++++++++++++++to 0.0662188
Heightened Def Con from 0.0662813 +++++++++++++++++++to 0.0662813
Heightened Def Con from 0.0663438 +++++++++++++++++++to 0.0663438
Heightened Def Con from 0.0664063 +++++++++++++++++++to 0.0664063
Heightened Def Con from 0.0664688 +++++++++++++++++++to 0.0664688
Heightened Def Con from 0.0665313 +++++++++++++++++++to 0.0665313
Heightened Def Con from 0.0665938 +++++++++++++++++++to 0.0665938
Heightened Def Con from 0.0666563 +++++++++++++++++++to 0.0666563
Heightened Def Con from 0.0667188 +++++++++++++++++++to 0.0667188
Heightened Def Con from 0.0667813 +++++++++++++++++++to 0.0667813
Heightened Def Con from 0.0668438 +++++++++++++++++++to 0.0668438
Heightened Def Con from 0.0669063 +++++++++++++++++++to 0.0669063
Heightened Def Con from 0.0669688 +++++++++++++++++++to 0.0669688
Heightened Def Con from 0.0670313 +++++++++++++++++++to 0.0670313
Heightened Def Con from 0.0670938 +++++++++++++++++++to 0.0670938
Heightened Def Con from 0.0671563 +++++++++++++++++++to 0.0671563
Heightened Def Con from 0.0672188 +++++++++++++++++++to 0.0672188
Heightened Def Con from 0.0672813 +++++++++++++++++++to 0.0672813
Heightened Def Con from 0.0673438 +++++++++++++++++++to 0.0673438
Heightened Def Con from 0.0674063 +++++++++++++++++++to 0.0674063
Heightened Def Con from 0.0674688 +++++++++++++++++++to 0.0674688
Heightened Def Con from 0.0675313 +++++++++++++++++++to 0.0675313
Heightened Def Con from 0.0675938 +++++++++++++++++++to 0.0675938
Heightened Def Con from 0.0676563 +++++++++++++++++++to 0.0676563
Heightened Def Con from 0.0677188 +++++++++++++++++++to 0.0677188
Heightened Def Con from 0.0677813 +++++++++++++++++++to 0.0677813
Heightened Def Con from 0.0678438 +++++++++++++++++++to 0.0678438
Heightened Def Con from 0.0679063 +++++++++++++++++++to 0.0679063
Heightened Def Con from 0.0679688 +++++++++++++++++++to 0.0679688
Heightened Def Con from 0.0680313 +++++++++++++++++++to 0.0680313
Heightened Def Con from 0.0680938 +++++++++++++++++++to 0.0680938
Heightened Def Con from 0.0681563 +++++++++++++++++++to 0.0681563
Heightened Def Con from 0.0682188 +++++++++++++++++++to 0.0682188
Heightened Def Con from 0.0682813 +++++++++++++++++++to 0.0682813
Heightened Def Con from 0.0683438 +++++++++++++++++++to 0.0683438
Heightened Def Con from 0.0684063 +++++++++++++++++++to 0.0684063
Heightened Def Con from 0.0684688 +++++++++++++++++++to 0.0684688
Heightened Def Con from 0.0685313 +++++++++++++++++++to 0.0685313
Heightened Def Con from 0.0685938 +++++++++++++++++++to 0.0685938
Heightened Def Con from 0.0686563 +++++++++++++++++++to 0.0686563
Heightened Def Con from 0.0687188 +++++++++++++++++++to 0.0687188
Heightened Def Con from 0.0687813 +++++++++++++++++++to 0.0687813
Heightened Def Con from 0.0688438 +++++++++++++++++++to 0.0688438
Heightened Def Con from 0.0689063 +++++++++++++++++++to 0.0689063
Heightened Def Con from 0.0689688 +++++++++++++++++++to 0.0689688
Heightened Def Con from 0.0690313 +++++++++++++++++++to 0.0690313
Heightened Def Con from 0.0690938 +++++++++++++++++++to 0.0690938
Heightened Def Con from 0.0691563 +++++++++++++++++++to 0.0691563
Heightened Def Con from 0.0692188 +++++++++++++++++++to 0.0692188
Heightened Def Con from 0.0692813 +++++++++++++++++++to 0.0692813
Heightened Def Con from 0.0693438 +++++++++++++++++++to 0.0693438
Heightened Def Con from 0.0694063 +++++++++++++++++++to 0.0694063
Heightened Def Con from 0.0694688 +++++++++++++++++++to 0.0694688
Heightened Def Con from 0.0695313 +++++++++++++++++++to 0.0695313
Heightened Def Con from 0.0695938 +++++++++++++++++++to 0.0695938
Heightened Def Con from 0.0696563 +++++++++++++++++++to 0.0696563
Heightened Def Con from 0.0697188 +++++++++++++++++++to 0.0697188
Heightened Def Con from 0.0697813 +++++++++++++++++++to 0.0697813
Heightened Def Con from 0.0698438 +++++++++++++++++++to 0.0698438
Heightened Def Con from 0.0699063 +++++++++++++++++++to 0.0699063
Heightened Def Con from 0.0699688 +++++++++++++++++++to 0.0699688
Heightened Def Con from 0.0700313 +++++++++++++++++++to 0.0700313
Heightened Def Con from 0.0700938 +++++++++++++++++++to 0.0700938
Heightened Def Con from 0.0701563 +++++++++++++++++++to 0.0701563
Heightened Def Con from 0.0702188 +++++++++++++++++++to 0.0702188
Heightened Def Con from 0.0702813 +++++++++++++++++++to 0.0702813
Heightened Def Con from 0.0703438 +++++++++++++++++++to 0.0703438
Heightened Def Con from 0.0704063 +++++++++++++++++++to 0.0704063
Heightened Def Con from 0.0704688 +++++++++++++++++++to 0.0704688
Heightened Def Con from 0.0705313 +++++++++++++++++++to 0.0705313
Heightened Def Con from 0.0705938 +++++++++++++++++++to 0.0705938
Heightened Def Con from 0.0706563 +++++++++++++++++++to 0.0706563
Heightened Def Con from 0.0707188 +++++++++++++++++++to 0.0707188
Heightened Def Con from 0.0707813 +++++++++++++++++++to 0.0707813
Heightened Def Con from 0.0708438 +++++++++++++++++++to 0.0708438
Heightened Def Con from 0.0709063 +++++++++++++++++++to 0.0709063
Heightened Def Con from 0.0709688 +++++++++++++++++++to 0.0709688
Heightened Def Con from 0.0710313 +++++++++++++++++++to 0.0710313
Heightened Def Con from 0.0710938 +++++++++++++++++++to 0.0710938
Heightened Def Con from 0.0711563 +++++++++++++++++++to 0.0711563
Heightened Def Con from 0.0712188 +++++++++++++++++++to 0.0712188
Heightened Def Con from 0.0712813 +++++++++++++++++++to 0.0712813
Heightened Def Con from 0.0713438 +++++++++++++++++++to 0.0713438
Heightened Def Con from 0.0714063 +++++++++++++++++++to 0.0714063
Heightened Def Con from 0.0714688 +++++++++++++++++++to 0.0714688
Heightened Def Con from 0.0715313 +++++++++++++++++++to 0.0715313
Heightened Def Con from 0.0715938 +++++++++++++++++++to 0.0715938
Heightened Def Con from 0.0716563 +++++++++++++++++++to 0.0716563
Heightened Def Con from 0.0717188 +++++++++++++++++++to 0.0717188
Heightened Def Con from 0.0717813 +++++++++++++++++++to 0.0717813
Heightened Def Con from 0.0718438 +++++++++++++++++++to 0.0718438
Heightened Def Con from 0.0719063 +++++++++++++++++++to 0.0719063
Heightened Def Con from 0.0719688 +++++++++++++++++++to 0.0719688
Heightened Def Con from 0.0720313 +++++++++++++++++++to 0.0720313
Heightened Def Con from 0.0720938 +++++++++++++++++++to 0.0720938
Heightened Def Con from 0.0721563 +++++++++++++++++++to 0.0721563
Heightened Def Con from 0.0722188 +++++++++++++++++++to 0.0722188
Heightened Def Con from 0.0722813 +++++++++++++++++++to 0.0722813
Heightened Def Con from 0.0723438 +++++++++++++++++++to 0.0723438
Heightened Def Con from 0.0724063 +++++++++++++++++++to 0.0724063
Heightened Def Con from 0.0724688 +++++++++++++++++++to 0.0724688
Heightened Def Con from 0.0725313 +++++++++++++++++++to 0.0725313
Heightened Def Con from 0.0725938 +++++++++++++++++++to 0.0725938
Heightened Def Con from 0.0726563 +++++++++++++++++++to 0.0726563
Heightened Def Con from 0.0727188 +++++++++++++++++++to 0.0727188
Heightened Def Con from 0.0727813 +++++++++++++++++++to 0.0727813
Heightened Def Con from 0.0728438 +++++++++++++++++++to 0.0728438
Heightened Def Con from 0.0729063 +++++++++++++++++++to 0.0729063
Heightened Def Con from 0.0729688 +++++++++++++++++++to 0.0729688
Heightened Def Con from 0.0730313 +++++++++++++++++++to 0.0730313
Heightened Def Con from 0.0730938 +++++++++++++++++++to 0.0730938
Heightened Def Con from 0.0731563 +++++++++++++++++++to 0.0731563
Heightened Def Con from 0.0732188 +++++++++++++++++++to 0.0732188
Heightened Def Con from 0.0732813 +++++++++++++++++++to 0.0732813
Heightened Def Con from 0.0733438 +++++++++++++++++++to 0.0733438
Heightened Def Con from 0.0734063 +++++++++++++++++++to 0.0734063
Heightened Def Con from 0.0734688 +++++++++++++++++++to 0.0734688
Heightened Def Con from 0.0735313 +++++++++++++++++++to 0.0735313
Heightened Def Con from 0.0735938 +++++++++++++++++++to 0.0735938
Heightened Def Con from 0.0736563 +++++++++++++++++++to 0.0736563
Heightened Def Con from 0.0737188 +++++++++++++++++++to 0.0737188
Heightened Def Con from 0.0737813 +++++++++++++++++++to 0.0737813
Heightened Def Con from 0.0738438 +++++++++++++++++++to 0.0738438
Heightened Def Con from 0.0739063 +++++++++++++++++++to 0.0739063
Heightened Def Con from 0.0739688 +++++++++++++++++++to 0.0739688
Heightened Def Con from 0.0740313 +++++++++++++++++++to 0.0740313
Heightened Def Con from 0.0740938 +++++++++++++++++++to 0.0740938
Heightened Def Con from 0.0741563 +++++++++++++++++++to 0.0741563
Heightened Def Con from 0.0742188 +++++++++++++++++++to 0.0742188
Heightened Def Con from 0.0742813 +++++++++++++++++++to 0.0742813
Heightened Def Con from 0.0743438 +++++++++++++++++++to 0.0743438
Heightened Def Con from 0.0744063 +++++++++++++++++++to 0.0744063
Heightened Def Con from 0.0744688 +++++++++++++++++++to 0.0744688
Heightened Def Con from 0.0745313 +++++++++++++++++++to 0.0745313
Heightened Def Con from 0.0745938 +++++++++++++++++++to 0.0745938
Heightened Def Con from 0.0746563 +++++++++++++++++++to 0.0746563
Heightened Def Con from 0.0747188 +++++++++++++++++++to 0.0747188
Heightened Def Con from 0.0747813 +++++++++++++++++++to 0.0747813
Heightened Def Con from 0.0748438 +++++++++++++++++++to 0.0748438
[...]
Heightened Def Con from 0.480844 +++++++++++++++++++to 0.480844
Heightened Def Con from 0.480906 +++++++++++++++++++to 0.480906
Heightened Def Con from 0.480969 +++++++++++++++++++to 0.480969
Heightened Def Con from 0.481031 +++++++++++++++++++to 0.481031
Heightened Def Con from 0.481094 +++++++++++++++++++to 0.481094
Heightened Def Con from 0.481156 +++++++++++++++++++to 0.481156
Heightened Def Con from 0.481219 +++++++++++++++++++to 0.481219
Heightened Def Con from 0.481281 +++++++++++++++++++to 0.481281
Heightened Def Con from 0.481344 +++++++++++++++++++to 0.481344
Heightened Def Con from 0.481406 +++++++++++++++++++to 0.481406
Heightened Def Con from 0.481469 +++++++++++++++++++to 0.481469
Heightened Def Con from 0.481531 +++++++++++++++++++to 0.481531
Heightened Def Con from 0.481594 +++++++++++++++++++to 0.481594
Heightened Def Con from 0.481656 +++++++++++++++++++to 0.481656
Heightened Def Con from 0.481719 +++++++++++++++++++to 0.481719
Heightened Def Con from 0.481781 +++++++++++++++++++to 0.481781
Heightened Def Con from 0.481844 +++++++++++++++++++to 0.481844
Heightened Def Con from 0.481906 +++++++++++++++++++to 0.481906
Heightened Def Con from 0.481969 +++++++++++++++++++to 0.481969
Heightened Def Con from 0.482031 +++++++++++++++++++to 0.482031
Heightened Def Con from 0.482094 +++++++++++++++++++to 0.482094
Heightened Def Con from 0.482156 +++++++++++++++++++to 0.482156
Heightened Def Con from 0.482219 +++++++++++++++++++to 0.482219
Heightened Def Con from 0.482281 +++++++++++++++++++to 0.482281
Heightened Def Con from 0.482344 +++++++++++++++++++to 0.482344
Heightened Def Con from 0.482406 +++++++++++++++++++to 0.482406
Heightened Def Con from 0.482469 +++++++++++++++++++to 0.482469
Heightened Def Con from 0.482531 +++++++++++++++++++to 0.482531
Heightened Def Con from 0.482594 +++++++++++++++++++to 0.482594
Heightened Def Con from 0.482656 +++++++++++++++++++to 0.482656
Heightened Def Con from 0.482719 +++++++++++++++++++to 0.482719
Heightened Def Con from 0.482781 +++++++++++++++++++to 0.482781
Heightened Def Con from 0.482844 +++++++++++++++++++to 0.482844
Heightened Def Con from 0.482906 +++++++++++++++++++to 0.482906
Heightened Def Con from 0.482969 +++++++++++++++++++to 0.482969
Heightened Def Con from 0.483031 +++++++++++++++++++to 0.483031
Heightened Def Con from 0.483094 +++++++++++++++++++to 0.483094
Heightened Def Con from 0.483156 +++++++++++++++++++to 0.483156
Heightened Def Con from 0.483219 +++++++++++++++++++to 0.483219
Heightened Def Con from 0.483281 +++++++++++++++++++to 0.483281
Heightened Def Con from 0.483344 +++++++++++++++++++to 0.483344
Heightened Def Con from 0.483406 +++++++++++++++++++to 0.483406
Heightened Def Con from 0.483469 +++++++++++++++++++to 0.483469
Heightened Def Con from 0.483531 +++++++++++++++++++to 0.483531
Heightened Def Con from 0.483594 +++++++++++++++++++to 0.483594
Heightened Def Con from 0.483656 +++++++++++++++++++to 0.483656
Heightened Def Con from 0.483719 +++++++++++++++++++to 0.483719
Heightened Def Con from 0.483781 +++++++++++++++++++to 0.483781
Heightened Def Con from 0.483844 +++++++++++++++++++to 0.483844
Heightened Def Con from 0.483906 +++++++++++++++++++to 0.483906
Heightened Def Con from 0.483969 +++++++++++++++++++to 0.483969
Heightened Def Con from 0.484031 +++++++++++++++++++to 0.484031
Heightened Def Con from 0.484094 +++++++++++++++++++to 0.484094
Heightened Def Con from 0.484156 +++++++++++++++++++to 0.484156
Heightened Def Con from 0.484219 +++++++++++++++++++to 0.484219
Heightened Def Con from 0.484281 +++++++++++++++++++to 0.484281
Heightened Def Con from 0.484344 +++++++++++++++++++to 0.484344
Heightened Def Con from 0.484406 +++++++++++++++++++to 0.484406
Heightened Def Con from 0.484469 +++++++++++++++++++to 0.484469
Heightened Def Con from 0.484531 +++++++++++++++++++to 0.484531
Heightened Def Con from 0.484594 +++++++++++++++++++to 0.484594
Heightened Def Con from 0.484656 +++++++++++++++++++to 0.484656
Heightened Def Con from 0.484719 +++++++++++++++++++to 0.484719
Heightened Def Con from 0.484781 +++++++++++++++++++to 0.484781
Heightened Def Con from 0.484844 +++++++++++++++++++to 0.484844
Heightened Def Con from 0.484906 +++++++++++++++++++to 0.484906
Heightened Def Con from 0.484969 +++++++++++++++++++to 0.484969
Heightened Def Con from 0.485031 +++++++++++++++++++to 0.485031
Heightened Def Con from 0.485094 +++++++++++++++++++to 0.485094
Heightened Def Con from 0.485156 +++++++++++++++++++to 0.485156
Heightened Def Con from 0.485219 +++++++++++++++++++to 0.485219
Heightened Def Con from 0.485281 +++++++++++++++++++to 0.485281
Heightened Def Con from 0.485344 +++++++++++++++++++to 0.485344
Heightened Def Con from 0.485406 +++++++++++++++++++to 0.485406
Heightened Def Con from 0.485469 +++++++++++++++++++to 0.485469
Heightened Def Con from 0.485531 +++++++++++++++++++to 0.485531
Heightened Def Con from 0.485594 +++++++++++++++++++to 0.485594
Heightened Def Con from 0.485656 +++++++++++++++++++to 0.485656
Heightened Def Con from 0.485719 +++++++++++++++++++to 0.485719
Heightened Def Con from 0.485781 +++++++++++++++++++to 0.485781
Heightened Def Con from 0.485844 +++++++++++++++++++to 0.485844
Heightened Def Con from 0.485906 +++++++++++++++++++to 0.485906
Heightened Def Con from 0.485969 +++++++++++++++++++to 0.485969
Heightened Def Con from 0.486031 +++++++++++++++++++to 0.486031
Heightened Def Con from 0.486094 +++++++++++++++++++to 0.486094
Heightened Def Con from 0.486156 +++++++++++++++++++to 0.486156
Heightened Def Con from 0.486219 +++++++++++++++++++to 0.486219
Heightened Def Con from 0.486281 +++++++++++++++++++to 0.486281
Heightened Def Con from 0.486344 +++++++++++++++++++to 0.486344
Heightened Def Con from 0.486406 +++++++++++++++++++to 0.486406
Heightened Def Con from 0.486469 +++++++++++++++++++to 0.486469
Heightened Def Con from 0.486531 +++++++++++++++++++to 0.486531
Heightened Def Con from 0.486594 +++++++++++++++++++to 0.486594
Heightened Def Con from 0.486656 +++++++++++++++++++to 0.486656
Heightened Def Con from 0.486719 +++++++++++++++++++to 0.486719
Heightened Def Con from 0.486781 +++++++++++++++++++to 0.486781
Heightened Def Con from 0.486844 +++++++++++++++++++to 0.486844
Heightened Def Con from 0.486906 +++++++++++++++++++to 0.486906
Heightened Def Con from 0.486969 +++++++++++++++++++to 0.486969
Heightened Def Con from 0.487031 +++++++++++++++++++to 0.487031
Heightened Def Con from 0.487094 +++++++++++++++++++to 0.487094
Heightened Def Con from 0.487156 +++++++++++++++++++to 0.487156
Heightened Def Con from 0.487219 +++++++++++++++++++to 0.487219
Heightened Def Con from 0.487281 +++++++++++++++++++to 0.487281
Heightened Def Con from 0.487344 +++++++++++++++++++to 0.487344
Heightened Def Con from 0.487406 +++++++++++++++++++to 0.487406
Heightened Def Con from 0.487469 +++++++++++++++++++to 0.487469
Heightened Def Con from 0.487531 +++++++++++++++++++to 0.487531
Heightened Def Con from 0.487594 +++++++++++++++++++to 0.487594
Heightened Def Con from 0.487656 +++++++++++++++++++to 0.487656
Heightened Def Con from 0.487719 +++++++++++++++++++to 0.487719
Heightened Def Con from 0.487781 +++++++++++++++++++to 0.487781
Heightened Def Con from 0.487844 +++++++++++++++++++to 0.487844
Heightened Def Con from 0.487906 +++++++++++++++++++to 0.487906
Heightened Def Con from 0.487969 +++++++++++++++++++to 0.487969
Heightened Def Con from 0.488031 +++++++++++++++++++to 0.488031
Heightened Def Con from 0.488094 +++++++++++++++++++to 0.488094
Heightened Def Con from 0.488156 +++++++++++++++++++to 0.488156
Heightened Def Con from 0.488219 +++++++++++++++++++to 0.488219
Heightened Def Con from 0.488281 +++++++++++++++++++to 0.488281
Heightened Def Con from 0.488344 +++++++++++++++++++to 0.488344
Heightened Def Con from 0.488406 +++++++++++++++++++to 0.488406
Heightened Def Con from 0.488469 +++++++++++++++++++to 0.488469
Heightened Def Con from 0.488531 +++++++++++++++++++to 0.488531
Heightened Def Con from 0.488594 +++++++++++++++++++to 0.488594
Heightened Def Con from 0.488656 +++++++++++++++++++to 0.488656
Heightened Def Con from 0.488719 +++++++++++++++++++to 0.488719
Heightened Def Con from 0.488781 +++++++++++++++++++to 0.488781
Heightened Def Con from 0.488844 +++++++++++++++++++to 0.488844
Heightened Def Con from 0.488906 +++++++++++++++++++to 0.488906
Heightened Def Con from 0.488969 +++++++++++++++++++to 0.488969
Heightened Def Con from 0.489031 +++++++++++++++++++to 0.489031
Heightened Def Con from 0.489094 +++++++++++++++++++to 0.489094
Heightened Def Con from 0.489156 +++++++++++++++++++to 0.489156
Heightened Def Con from 0.489219 +++++++++++++++++++to 0.489219
Heightened Def Con from 0.489281 +++++++++++++++++++to 0.489281
Heightened Def Con from 0.489344 +++++++++++++++++++to 0.489344
Heightened Def Con from 0.489406 +++++++++++++++++++to 0.489406
Heightened Def Con from 0.489469 +++++++++++++++++++to 0.489469
Heightened Def Con from 0.489531 +++++++++++++++++++to 0.489531
Heightened Def Con from 0.489594 +++++++++++++++++++to 0.489594
Heightened Def Con from 0.489656 +++++++++++++++++++to 0.489656
Heightened Def Con from 0.489719 +++++++++++++++++++to 0.489719
Heightened Def Con from 0.489781 +++++++++++++++++++to 0.489781
Heightened Def Con from 0.489844 +++++++++++++++++++to 0.489844
Heightened Def Con from 0.489906 +++++++++++++++++++to 0.489906
Heightened Def Con from 0.489969 +++++++++++++++++++to 0.489969
Heightened Def Con from 0.490031 +++++++++++++++++++to 0.490031
Heightened Def Con from 0.490094 +++++++++++++++++++to 0.490094
Heightened Def Con from 0.490156 +++++++++++++++++++to 0.490156
Heightened Def Con from 0.490219 +++++++++++++++++++to 0.490219
Heightened Def Con from 0.490281 +++++++++++++++++++to 0.490281
Heightened Def Con from 0.490344 +++++++++++++++++++to 0.490344
Heightened Def Con from 0.490406 +++++++++++++++++++to 0.490406
Heightened Def Con from 0.490469 +++++++++++++++++++to 0.490469
Heightened Def Con from 0.490531 +++++++++++++++++++to 0.490531
Heightened Def Con from 0.490594 +++++++++++++++++++to 0.490594
Heightened Def Con from 0.490656 +++++++++++++++++++to 0.490656
Heightened Def Con from 0.490719 +++++++++++++++++++to 0.490719
Heightened Def Con from 0.490781 +++++++++++++++++++to 0.490781
Heightened Def Con from 0.490844 +++++++++++++++++++to 0.490844
Heightened Def Con from 0.490906 +++++++++++++++++++to 0.490906
Heightened Def Con from 0.490969 +++++++++++++++++++to 0.490969
Heightened Def Con from 0.491031 +++++++++++++++++++to 0.491031
Heightened Def Con from 0.491094 +++++++++++++++++++to 0.491094
Heightened Def Con from 0.491156 +++++++++++++++++++to 0.491156
Heightened Def Con from 0.491219 +++++++++++++++++++to 0.491219
Heightened Def Con from 0.491281 +++++++++++++++++++to 0.491281
Heightened Def Con from 0.491344 +++++++++++++++++++to 0.491344
Heightened Def Con from 0.491406 +++++++++++++++++++to 0.491406
Heightened Def Con from 0.491469 +++++++++++++++++++to 0.491469
Heightened Def Con from 0.491531 +++++++++++++++++++to 0.491531
Heightened Def Con from 0.491594 +++++++++++++++++++to 0.491594
Heightened Def Con from 0.491656 +++++++++++++++++++to 0.491656
Heightened Def Con from 0.491719 +++++++++++++++++++to 0.491719
Heightened Def Con from 0.491781 +++++++++++++++++++to 0.491781
Heightened Def Con from 0.491844 +++++++++++++++++++to 0.491844
Heightened Def Con from 0.491906 +++++++++++++++++++to 0.491906
Heightened Def Con from 0.491969 +++++++++++++++++++to 0.491969
Heightened Def Con from 0.492031 +++++++++++++++++++to 0.492031
Heightened Def Con from 0.492094 +++++++++++++++++++to 0.492094
Heightened Def Con from 0.492156 +++++++++++++++++++to 0.492156
Heightened Def Con from 0.492219 +++++++++++++++++++to 0.492219
Heightened Def Con from 0.492281 +++++++++++++++++++to 0.492281
Heightened Def Con from 0.492344 +++++++++++++++++++to 0.492344
Heightened Def Con from 0.492406 +++++++++++++++++++to 0.492406
Heightened Def Con from 0.492469 +++++++++++++++++++to 0.492469
Heightened Def Con from 0.492531 +++++++++++++++++++to 0.492531
Heightened Def Con from 0.492594 +++++++++++++++++++to 0.492594
Heightened Def Con from 0.492656 +++++++++++++++++++to 0.492656
Heightened Def Con from 0.492719 +++++++++++++++++++to 0.492719
Heightened Def Con from 0.492781 +++++++++++++++++++to 0.492781
Heightened Def Con from 0.492844 +++++++++++++++++++to 0.492844
Heightened Def Con from 0.492906 +++++++++++++++++++to 0.492906
Heightened Def Con from 0.492969 +++++++++++++++++++to 0.492969
Heightened Def Con from 0.493031 +++++++++++++++++++to 0.493031
Heightened Def Con from 0.493094 +++++++++++++++++++to 0.493094
Heightened Def Con from 0.493156 +++++++++++++++++++to 0.493156
Heightened Def Con from 0.493219 +++++++++++++++++++to 0.493219
Heightened Def Con from 0.493281 +++++++++++++++++++to 0.493281
Heightened Def Con from 0.493344 +++++++++++++++++++to 0.493344
Heightened Def Con from 0.493406 +++++++++++++++++++to 0.493406
Heightened Def Con from 0.493469 +++++++++++++++++++to 0.493469
Heightened Def Con from 0.493531 +++++++++++++++++++to 0.493531
Heightened Def Con from 0.493594 +++++++++++++++++++to 0.493594
Heightened Def Con from 0.493656 +++++++++++++++++++to 0.493656
Heightened Def Con from 0.493719 +++++++++++++++++++to 0.493719
Heightened Def Con from 0.493781 +++++++++++++++++++to 0.493781
Heightened Def Con from 0.493844 +++++++++++++++++++to 0.493844
Heightened Def Con from 0.493906 +++++++++++++++++++to 0.493906
Heightened Def Con from 0.493969 +++++++++++++++++++to 0.493969
Heightened Def Con from 0.494031 +++++++++++++++++++to 0.494031
Heightened Def Con from 0.494094 +++++++++++++++++++to 0.494094
Heightened Def Con from 0.494156 +++++++++++++++++++to 0.494156
Heightened Def Con from 0.494219 +++++++++++++++++++to 0.494219
Heightened Def Con from 0.494281 +++++++++++++++++++to 0.494281
Heightened Def Con from 0.494344 +++++++++++++++++++to 0.494344
Heightened Def Con from 0.494406 +++++++++++++++++++to 0.494406
Heightened Def Con from 0.494469 +++++++++++++++++++to 0.494469
Heightened Def Con from 0.494531 +++++++++++++++++++to 0.494531
Heightened Def Con from 0.494594 +++++++++++++++++++to 0.494594
Heightened Def Con from 0.494656 +++++++++++++++++++to 0.494656
Heightened Def Con from 0.494719 +++++++++++++++++++to 0.494719
Heightened Def Con from 0.494781 +++++++++++++++++++to 0.494781
Heightened Def Con from 0.494844 +++++++++++++++++++to 0.494844
Heightened Def Con from 0.494906 +++++++++++++++++++to 0.494906
Heightened Def Con from 0.494969 +++++++++++++++++++to 0.494969
Heightened Def Con from 0.495031 +++++++++++++++++++to 0.495031
Heightened Def Con from 0.495094 +++++++++++++++++++to 0.495094
Heightened Def Con from 0.495156 +++++++++++++++++++to 0.495156
Heightened Def Con from 0.495219 +++++++++++++++++++to 0.495219
Heightened Def Con from 0.495281 +++++++++++++++++++to 0.495281
Heightened Def Con from 0.495344 +++++++++++++++++++to 0.495344
Heightened Def Con from 0.495406 +++++++++++++++++++to 0.495406
Heightened Def Con from 0.495469 +++++++++++++++++++to 0.495469
Heightened Def Con from 0.495531 +++++++++++++++++++to 0.495531
Heightened Def Con from 0.495594 +++++++++++++++++++to 0.495594
Heightened Def Con from 0.495656 +++++++++++++++++++to 0.495656
Heightened Def Con from 0.495719 +++++++++++++++++++to 0.495719
Heightened Def Con from 0.495781 +++++++++++++++++++to 0.495781
Heightened Def Con from 0.495844 +++++++++++++++++++to 0.495844
Heightened Def Con from 0.495906 +++++++++++++++++++to 0.495906
Heightened Def Con from 0.495969 +++++++++++++++++++to 0.495969
Heightened Def Con from 0.496031 +++++++++++++++++++to 0.496031
Heightened Def Con from 0.496094 +++++++++++++++++++to 0.496094
Heightened Def Con from 0.496156 +++++++++++++++++++to 0.496156
Heightened Def Con from 0.496219 +++++++++++++++++++to 0.496219
Heightened Def Con from 0.496281 +++++++++++++++++++to 0.496281
Heightened Def Con from 0.496344 +++++++++++++++++++to 0.496344
Heightened Def Con from 0.496406 +++++++++++++++++++to 0.496406
Heightened Def Con from 0.496469 +++++++++++++++++++to 0.496469
Heightened Def Con from 0.496531 +++++++++++++++++++to 0.496531
Heightened Def Con from 0.496594 +++++++++++++++++++to 0.496594
Heightened Def Con from 0.496656 +++++++++++++++++++to 0.496656
Heightened Def Con from 0.496719 +++++++++++++++++++to 0.496719
Heightened Def Con from 0.496781 +++++++++++++++++++to 0.496781
Heightened Def Con from 0.496844 +++++++++++++++++++to 0.496844
Heightened Def Con from 0.496906 +++++++++++++++++++to 0.496906
Heightened Def Con from 0.496969 +++++++++++++++++++to 0.496969
Heightened Def Con from 0.497031 +++++++++++++++++++to 0.497031
Heightened Def Con from 0.497094 +++++++++++++++++++to 0.497094
Heightened Def Con from 0.497156 +++++++++++++++++++to 0.497156
Heightened Def Con from 0.497219 +++++++++++++++++++to 0.497219
Heightened Def Con from 0.497281 +++++++++++++++++++to 0.497281
Heightened Def Con from 0.497344 +++++++++++++++++++to 0.497344
Heightened Def Con from 0.497406 +++++++++++++++++++to 0.497406
Heightened Def Con from 0.497469 +++++++++++++++++++to 0.497469
Heightened Def Con from 0.497531 +++++++++++++++++++to 0.497531
Heightened Def Con from 0.497594 +++++++++++++++++++to 0.497594
Heightened Def Con from 0.497656 +++++++++++++++++++to 0.497656
Heightened Def Con from 0.497719 +++++++++++++++++++to 0.497719
Heightened Def Con from 0.497781 +++++++++++++++++++to 0.497781
Heightened Def Con from 0.497844 +++++++++++++++++++to 0.497844
Heightened Def Con from 0.497906 +++++++++++++++++++to 0.497906
Heightened Def Con from 0.497969 +++++++++++++++++++to 0.497969
Heightened Def Con from 0.498031 +++++++++++++++++++to 0.498031
Heightened Def Con from 0.498094 +++++++++++++++++++to 0.498094
Heightened Def Con from 0.498156 +++++++++++++++++++to 0.498156
Heightened Def Con from 0.498219 +++++++++++++++++++to 0.498219
Heightened Def Con from 0.498281 +++++++++++++++++++to 0.498281
Heightened Def Con from 0.498344 +++++++++++++++++++to 0.498344
Heightened Def Con from 0.498406 +++++++++++++++++++to 0.498406
Heightened Def Con from 0.498469 +++++++++++++++++++to 0.498469
Heightened Def Con from 0.498531 +++++++++++++++++++to 0.498531
Heightened Def Con from 0.498594 +++++++++++++++++++to 0.498594
Heightened Def Con from 0.498656 +++++++++++++++++++to 0.498656
Heightened Def Con from 0.498719 +++++++++++++++++++to 0.498719
Heightened Def Con from 0.498781 +++++++++++++++++++to 0.498781
Heightened Def Con from 0.498844 +++++++++++++++++++to 0.498844
Heightened Def Con from 0.498906 +++++++++++++++++++to 0.498906
Heightened Def Con from 0.498969 +++++++++++++++++++to 0.498969
Heightened Def Con from 0.499031 +++++++++++++++++++to 0.499031
Heightened Def Con from 0.499094 +++++++++++++++++++to 0.499094
Heightened Def Con from 0.499156 +++++++++++++++++++to 0.499156
Heightened Def Con from 0.499219 +++++++++++++++++++to 0.499219
Heightened Def Con from 0.499281 +++++++++++++++++++to 0.499281
Heightened Def Con from 0.499344 +++++++++++++++++++to 0.499344
Heightened Def Con from 0.499406 +++++++++++++++++++to 0.499406
Heightened Def Con from 0.499469 +++++++++++++++++++to 0.499469
Heightened Def Con from 0.499531 +++++++++++++++++++to 0.499531
Heightened Def Con from 0.499594 +++++++++++++++++++to 0.499594
Heightened Def Con from 0.499656 +++++++++++++++++++to 0.499656
Heightened Def Con from 0.499719 +++++++++++++++++++to 0.499719
Heightened Def Con from 0.499781 +++++++++++++++++++to 0.499781
Heightened Def Con from 0.499844 +++++++++++++++++++to 0.499844
Heightened Def Con from 0.499906 +++++++++++++++++++to 0.499906
Heightened Def Con from 0.499969 +++++++++++++++++++to 0.499969

Date: Sat Mar 26 01:38:28 2022
Total elapsed time: 45.109 seconds.

tnom = 27
temp = 27
method = modified trap
totiter = 16526368
traniter = 16526012
tranpoints = 2099060
accept = 844311
rejected = 1414749
matrix size = 19
fillins = 4
solver = Normal
Matrix Compiler1: 1.96 KB object code size  0.3/0.1/[0.2]
Matrix Compiler2: off  [0.2]/0.3/0.3

